# BAS6 package for  MODFLOW-NWT, generated by Flopy.
FREE
INTERNAL               1     (FREE) -1 #ibound_layer_0                
         1         1         1         1         1         1         1         1         1         1         1         1         1         1         1         1         1         1         1         1         1         1         1         1         1         1         1         1         1         1         1         1         1         1         1         1         1         1         1         1         1         1         1         1         1         1         1         1         1         1
         1         1         1         1         1         1         1         1         1         1         1         1         1         1         1         1         1         1         1         1         1         1         1         1         1         1         1         1         1         1         1         1         1         1         1         1         1         1         1         1         1         1         1         1         1         1         1         1         1         1
         1         1         1         1         1         1         1         1         1         1         1         1         1         1         1         1         1         1         1         1         1         1         1         1         1         1         1         1         1         1         1         1         1         1         1         1         1         1         1         1         1         1         1         1         1         1         1         1         1         1
         1         1         1         1         1         1         1         1         1         1         1         1         1         1         1         1         1         1         1         1         1         1         1         1         1         1         1         1         1         1         1         1         1         1         1         1         1         1         1         1         1         1         1         1         1         1         1         1         1         1
         1         1         1         1         1         1         1         1         1         1         1         1         1         1         1         1         1         1         1         1         1         1         1         1         1         1         1         1         1         1         1         1         1         1         1         1         1         1         1         1         1         1         1         1         1         1         1         1         1         1
         1         1         1         1         1         1         1         1         1         1         1         1         1         1         1         1         1         1         1         1         1         1         1         1         1         1         1         1         1         1         1         1         1         1         1         1         1         1         1         1         1         1         1         1         1         1         1         1         1         1
         1         1         1         1         1         1         1         1         1         1         1         1         1         1         1         1         1         1         1         1         1         1         1         1         1         1         1         1         1         1         1         1         1         1         1         1         1         1         1         1         1         1         1         1         1         1         1         1         1         1
         1         1         1         1         1         1         1         1         1         1         1         1         1         1         1         1         1         1         1         1         1         1         1         1         1         1         1         1         1         1         1         1         1         1         1         1         1         1         1         1         1         1         1         1         1         1         1         1         1         1
         1         1         1         1         1         1         1         1         1         1         1         1         1         1         1         1         1         1         1         1         1         1         1         1         1         1         1         1         1         1         1         1         1         1         1         1         1         1         1         1         1         1         1         1         1         1         1         1         1         1
         1         1         1         1         1         1         1         1         1         1         1         1         1         1         1         1         1         1         1         1         1         1         1         1         1         1         1         1         1         1         1         1         1         1         1         1         1         1         1         1         1         1         1         1         1         1         1         1         1         1
         1         1         1         1         1         1         1         1         1         1         1         1         1         1         1         1         1         1         1         1         1         1         1         1         1         1         1         1         1         1         1         1         1         1         1         1         1         1         1         1         1         1         1         1         1         1         1         1         1         1
         1         1         1         1         1         1         1         1         1         1         1         1         1         1         1         1         1         1         1         1         1         1         1         1         1         1         1         1         1         1         1         1         1         1         1         1         1         1         1         1         1         1         1         1         1         1         1         1         1         1
         1         1         1         1         1         1         1         1         1         1         1         1         1         1         1         1         1         1         1         1         1         1         1         1         1         1         1         1         1         1         1         1         1         1         1         1         1         1         1         1         1         1         1         1         1         1         1         1         1         1
         1         1         1         1         1         1         1         1         1         1         1         1         1         1         1         1         1         1         1         1         1         1         1         1         1         1         1         1         1         1         1         1         1         1         1         1         1         1         1         1         1         1         1         1         1         1         1         1         1         1
         1         1         1         1         1         1         1         1         1         1         1         1         1         1         1         1         1         1         1         1         1         1         1         1         1         1         1         1         1         1         1         1         1         1         1         1         1         1         1         1         1         1         1         1         1         1         1         1         1         1
         1         1         1         1         1         1         1         1         1         1         1         1         1         1         1         1         1         1         1         1         1         1         1         1         1         1         1         1         1         1         1         1         1         1         1         1         1         1         1         1         1         1         1         1         1         1         1         1         1         1
         1         1         1         1         1         1         1         1         1         1         1         1         1         1         1         1         1         1         1         1         1         1         1         1         1         1         1         1         1         1         1         1         1         1         1         1         1         1         1         1         1         1         1         1         1         1         1         1         1         1
         1         1         1         1         1         1         1         1         1         1         1         1         1         1         1         1         1         1         1         1         1         1         1         1         1         1         1         1         1         1         1         1         1         1         1         1         1         1         1         1         1         1         1         1         1         1         1         1         1         1
         1         1         1         1         1         1         1         1         1         1         1         1         1         1         1         1         1         1         1         1         1         1         1         1         1         1         1         1         1         1         1         1         1         1         1         1         1         1         1         1         1         1         1         1         1         1         1         1         1         1
         1         1         1         1         1         1         1         1         1         1         1         1         1         1         1         1         1         1         1         1         1         1         1         1         1         1         1         1         1         1         1         1         1         1         1         1         1         1         1         1         1         1         1         1         1         1         1         1         1         1
         1         1         1         1         1         1         1         1         1         1         1         1         1         1         1         1         1         1         1         1         1         1         1         1         1         1         1         1         1         1         1         1         1         1         1         1         1         1         1         1         1         1         1         1         1         1         1         1         1         1
         1         1         1         1         1         1         1         1         1         1         1         1         1         1         1         1         1         1         1         1         1         1         1         1         1         1         1         1         1         1         1         1         1         1         1         1         1         1         1         1         1         1         1         1         1         1         1         1         1         1
         1         1         1         1         1         1         1         1         1         1         1         1         1         1         1         1         1         1         1         1         1         1         1         1         1         1         1         1         1         1         1         1         1         1         1         1         1         1         1         1         1         1         1         1         1         1         1         1         1         1
         1         1         1         1         1         1         1         1         1         1         1         1         1         1         1         1         1         1         1         1         1         1         1         1         1         1         1         1         1         1         1         1         1         1         1         1         1         1         1         1         1         1         1         1         1         1         1         1         1         1
         1         1         1         1         1         1         1         1         1         1         1         1         1         1         1         1         1         1         1         1         1         1         1         1         1         1         1         1         1         1         1         1         1         1         1         1         1         1         1         1         1         1         1         1         1         1         1         1         1         1
         1         1         1         1         1         1         1         1         1         1         1         1         1         1         1         1         1         1         1         1         1         1         1         1         1         1         1         1         1         1         1         1         1         1         1         1         1         1         1         1         1         1         1         1         1         1         1         1         1         1
         1         1         1         1         1         1         1         1         1         1         1         1         1         1         1         1         1         1         1         1         1         1         1         1         1         1         1         1         1         1         1         1         1         1         1         1         1         1         1         1         1         1         1         1         1         1         1         1         1         1
         1         1         1         1         1         1         1         1         1         1         1         1         1         1         1         1         1         1         1         1         1         1         1         1         1         1         1         1         1         1         1         1         1         1         1         1         1         1         1         1         1         1         1         1         1         1         1         1         1         1
         1         1         1         1         1         1         1         1         1         1         1         1         1         1         1         1         1         1         1         1         1         1         1         1         1         1         1         1         1         1         1         1         1         1         1         1         1         1         1         1         1         1         1         1         1         1         1         1         1         1
         1         1         1         1         1         1         1         1         1         1         1         1         1         1         1         1         1         1         1         1         1         1         1         1         1         1         1         1         1         1         1         1         1         1         1         1         1         1         1         1         1         1         1         1         1         1         1         1         1         1
         1         1         1         1         1         1         1         1         1         1         1         1         1         1         1         1         1         1         1         1         1         1         1         1         1         1         1         1         1         1         1         1         1         1         1         1         1         1         1         1         1         1         1         1         1         1         1         1         1         1
         1         1         1         1         1         1         1         1         1         1         1         1         1         1         1         1         1         1         1         1         1         1         1         1         1         1         1         1         1         1         1         1         1         1         1         1         1         1         1         1         1         1         1         1         1         1         1         1         1         1
         1         1         1         1         1         1         1         1         1         1         1         1         1         1         1         1         1         1         1         1         1         1         1         1         1         1         1         1         1         1         1         1         1         1         1         1         1         1         1         1         1         1         1         1         1         1         1         1         1         1
         1         1         1         1         1         1         1         1         1         1         1         1         1         1         1         1         1         1         1         1         1         1         1         1         1         1         1         1         1         1         1         1         1         1         1         1         1         1         1         1         1         1         1         1         1         1         1         1         1         1
         1         1         1         1         1         1         1         1         1         1         1         1         1         1         1         1         1         1         1         1         1         1         1         1         1         1         1         1         1         1         1         1         1         1         1         1         1         1         1         1         1         1         1         1         1         1         1         1         1         1
         1         1         1         1         1         1         1         1         1         1         1         1         1         1         1         1         1         1         1         1         1         1         1         1         1         1         1         1         1         1         1         1         1         1         1         1         1         1         1         1         1         1         1         1         1         1         1         1         1         1
         1         1         1         1         1         1         1         1         1         1         1         1         1         1         1         1         1         1         1         1         1         1         1         1         1         1         1         1         1         1         1         1         1         1         1         1         1         1         1         1         1         1         1         1         1         1         1         1         1         1
         1         1         1         1         1         1         1         1         1         1         1         1         1         1         1         1         1         1         1         1         1         1         1         1         1         1         1         1         1         1         1         1         1         1         1         1         1         1         1         1         1         1         1         1         1         1         1         1         1         1
         1         1         1         1         1         1         1         1         1         1         1         1         1         1         1         1         1         1         1         1         1         1         1         1         1         1         1         1         1         1         1         1         1         1         1         1         1         1         1         1         1         1         1         1         1         1         1         1         1         1
         1         1         1         1         1         1         1         1         1         1         1         1         1         1         1         1         1         1         1         1         1         1         1         1         1         1         1         1         1         1         1         1         1         1         1         1         1         1         1         1         1         1         1         1         1         1         1         1         1         1
         1         1         1         1         1         1         1         1         1         1         1         1         1         1         1         1         1         1         1         1         1         1         1         1         1         1         1         1         1         1         1         1         1         1         1         1         1         1         1         1         1         1         1         1         1         1         1         1         1         1
         1         1         1         1         1         1         1         1         1         1         1         1         1         1         1         1         1         1         1         1         1         1         1         1         1         1         1         1         1         1         1         1         1         1         1         1         1         1         1         1         1         1         1         1         1         1         1         1         1         1
         1         1         1         1         1         1         1         1         1         1         1         1         1         1         1         1         1         1         1         1         1         1         1         1         1         1         1         1         1         1         1         1         1         1         1         1         1         1         1         1         1         1         1         1         1         1         1         1         1         1
         1         1         1         1         1         1         1         1         1         1         1         1         1         1         1         1         1         1         1         1         1         1         1         1         1         1         1         1         1         1         1         1         1         1         1         1         1         1         1         1         1         1         1         1         1         1         1         1         1         1
         1         1         1         1         1         1         1         1         1         1         1         1         1         1         1         1         1         1         1         1         1         1         1         1         1         1         1         1         1         1         1         1         1         1         1         1         1         1         1         1         1         1         1         1         1         1         1         1         1         1
         1         1         1         1         1         1         1         1         1         1         1         1         1         1         1         1         1         1         1         1         1         1         1         1         1         1         1         1         1         1         1         1         1         1         1         1         1         1         1         1         1         1         1         1         1         1         1         1         1         1
         1         1         1         1         1         1         1         1         1         1         1         1         1         1         1         1         1         1         1         1         1         1         1         1         1         1         1         1         1         1         1         1         1         1         1         1         1         1         1         1         1         1         1         1         1         1         1         1         1         1
         1         1         1         1         1         1         1         1         1         1         1         1         1         1         1         1         1         1         1         1         1         1         1         1         1         1         1         1         1         1         1         1         1         1         1         1         1         1         1         1         1         1         1         1         1         1         1         1         1         1
         1         1         1         1         1         1         1         1         1         1         1         1         1         1         1         1         1         1         1         1         1         1         1         1         1         1         1         1         1         1         1         1         1         1         1         1         1         1         1         1         1         1         1         1         1         1         1         1         1         1
         1         1         1         1         1         1         1         1         1         1         1         1         1         1         1         1         1         1         1         1         1         1         1         1         1         1         1         1         1         1         1         1         1         1         1         1         1         1         1         1         1         1         1         1         1         1         1         1         1         1
   -999.99
INTERNAL               1  (50E15.6) -1 #strt layer 1                  
   4.499900E+01   4.499900E+01   4.499900E+01   4.499686E+01   4.499610E+01   4.499427E+01   4.499207E+01   4.498730E+01   4.498611E+01   4.498589E+01   4.498489E+01   4.498563E+01   4.498627E+01   4.498758E+01   4.498347E+01   4.497868E+01   4.497190E+01   4.497268E+01   4.497698E+01   4.497898E+01   4.497951E+01   4.498266E+01   4.498441E+01   4.498691E+01   4.498838E+01   4.498835E+01   4.498720E+01   4.498914E+01   4.498972E+01   4.498998E+01   4.499125E+01   4.499237E+01   4.499178E+01   4.499168E+01   4.499059E+01   4.498875E+01   4.498821E+01   4.498721E+01   4.498737E+01   4.498734E+01   4.498715E+01   4.498894E+01   4.498912E+01   4.499006E+01   4.499009E+01   4.499017E+01   4.499015E+01   4.499114E+01   4.499095E+01   4.499213E+01
   4.499900E+01   4.499900E+01   4.499829E+01   4.499722E+01   4.499542E+01   4.499353E+01   4.498914E+01   4.498623E+01   4.498412E+01   4.498315E+01   4.498085E+01   4.498000E+01   4.497955E+01   4.498214E+01   4.497451E+01   4.497112E+01   4.496235E+01   4.496266E+01   4.497038E+01   4.496964E+01   4.496449E+01   4.496962E+01   4.496983E+01   4.497677E+01   4.498357E+01   4.498168E+01   4.498134E+01   4.498249E+01   4.498318E+01   4.498390E+01   4.498604E+01   4.498806E+01   4.498959E+01   4.498889E+01   4.499077E+01   4.498951E+01   4.498761E+01   4.498739E+01   4.498624E+01   4.498612E+01   4.498616E+01   4.498832E+01   4.498924E+01   4.499002E+01   4.499016E+01   4.498989E+01   4.498997E+01   4.499117E+01   4.499095E+01   4.499109E+01
   4.499900E+01   4.499900E+01   4.499789E+01   4.499599E+01   4.499424E+01   4.499125E+01   4.498742E+01   4.498270E+01   4.498150E+01   4.497936E+01   4.497643E+01   4.497340E+01   4.497165E+01   4.495395E+01   4.493653E+01   4.494087E+01   4.494134E+01   4.494105E+01   4.495239E+01   4.495018E+01   4.493615E+01   4.493948E+01   4.493980E+01   4.494608E+01   4.495948E+01   4.493874E+01   4.495955E+01   4.496972E+01   4.496679E+01   4.496476E+01   4.496499E+01   4.496447E+01   4.497417E+01   4.497984E+01   4.498660E+01   4.498658E+01   4.498540E+01   4.498432E+01   4.498419E+01   4.498304E+01   4.498196E+01   4.498511E+01   4.498829E+01   4.498999E+01   4.499011E+01   4.499017E+01   4.499102E+01   4.499108E+01   4.499094E+01   4.499109E+01
   4.499900E+01   4.499900E+01   4.499792E+01   4.499578E+01   4.499055E+01   4.498704E+01   4.498320E+01   4.497910E+01   4.497810E+01   4.497604E+01   4.497157E+01   4.496692E+01   4.495366E+01   4.492707E+01   4.491797E+01   4.491304E+01   4.490751E+01   4.490372E+01   4.490947E+01   4.490948E+01   4.487881E+01   4.487767E+01   4.487129E+01   4.487705E+01   4.490745E+01   4.487532E+01   4.489601E+01   4.491983E+01   4.490591E+01   4.492133E+01   4.492111E+01   4.491772E+01   4.494011E+01   4.496081E+01   4.497696E+01   4.497792E+01   4.497544E+01   4.497459E+01   4.497709E+01   4.497794E+01   4.497571E+01   4.497686E+01   4.498508E+01   4.498924E+01   4.499008E+01   4.499005E+01   4.499102E+01   4.499101E+01   4.499099E+01   4.499195E+01
   4.499900E+01   4.499799E+01   4.499717E+01   4.499431E+01   4.499073E+01   4.498653E+01   4.498191E+01   4.497826E+01   4.497642E+01   4.497291E+01   4.496538E+01   4.495340E+01   4.492921E+01   4.490921E+01   4.490180E+01   4.488241E+01   4.485742E+01   4.485467E+01   4.485927E+01   4.484579E+01   4.478260E+01   4.476556E+01   4.474627E+01   4.476909E+01   4.480831E+01   4.474947E+01   4.476532E+01   4.477562E+01   4.479450E+01   4.484342E+01   4.486946E+01   4.487592E+01   4.489941E+01   4.493586E+01   4.496089E+01   4.496484E+01   4.495678E+01   4.495668E+01   4.495782E+01   4.495975E+01   4.496141E+01   4.496466E+01   4.497578E+01   4.498713E+01   4.498932E+01   4.499011E+01   4.499023E+01   4.499110E+01   4.499202E+01   4.499401E+01
   4.499900E+01   4.499803E+01   4.499703E+01   4.499441E+01   4.499175E+01   4.498689E+01   4.498222E+01   4.497860E+01   4.497478E+01   4.496883E+01   4.495749E+01   4.493744E+01   4.491035E+01   4.488476E+01   4.486587E+01   4.483610E+01   4.480925E+01   4.480474E+01   4.479636E+01   4.473858E+01   4.469098E+01   4.467820E+01   4.468267E+01   4.467348E+01   4.465038E+01   4.463766E+01   4.465075E+01   4.467822E+01   4.470427E+01   4.475031E+01   4.480019E+01   4.483329E+01   4.484603E+01   4.488831E+01   4.493141E+01   4.494659E+01   4.494144E+01   4.494055E+01   4.493721E+01   4.493914E+01   4.494625E+01   4.495346E+01   4.496180E+01   4.497793E+01   4.498700E+01   4.498913E+01   4.499004E+01   4.499081E+01   4.499194E+01   4.499500E+01