# UPW package for  MODFLOW-NWT, generated by Flopy.
        55    -1E+30         0         0 
         1
         0
   1.000000E+00
         0
         0
INTERNAL               1  (50E15.6) -1 #hk layer 1                    
   1.217107E+00   2.318128E+00   1.316542E+00   2.863016E-01   1.196425E-01   6.199608E-01   1.770162E-01   6.060614E-01   2.280545E+00   6.806846E-01   5.533625E-01   2.471690E-01   2.455826E-01   1.497884E-01   4.104577E-01   4.250246E-01   1.052426E+00   4.356803E-01   3.978930E-01   2.590425E-01   1.571340E-01   9.996554E-02   8.223426E-02   6.551465E-02   8.449183E-02   8.441330E-02   2.023267E-01   6.410309E-02   6.347144E-02   1.331713E-01   3.641255E-02   2.340149E-01   5.506894E-01   3.463654E-01   2.962462E-01   2.393100E+00   5.316617E+00   5.012864E+00   6.128365E+00   1.416921E+01   1.214929E+01   7.413744E+00   3.302710E+01   6.092654E+01   4.348100E+01   1.668842E+02   7.933545E+00   1.781473E+01   7.304493E+00   3.257771E+00
   3.932064E+00   2.725216E+00   2.737885E-01   5.073813E-01   2.289282E-01   1.152852E-01   4.756763E-01   1.159044E+00   3.067708E+00   1.093895E+00   1.120171E+00   3.533759E-01   6.802666E-01   5.748359E-02   5.863293E-02   7.220579E-02   4.526432E-01   4.078756E-01   2.574591E-01   3.905765E-01   4.258930E-01   2.150435E-01   2.545159E-01   1.371362E-01   6.575533E-02   3.874400E-02   3.134124E-01   1.792946E-01   1.734815E-01   1.093402E-01   5.391263E-02   4.418445E-02   1.084748E-01   1.572396E-01   7.327814E-02   4.367390E-01   8.225215E-01   2.175092E+00   7.992311E+00   3.564518E+00   2.015529E+00   1.245764E+01   1.111668E+01   1.780396E+01   1.170130E+02   5.914177E+01   9.984738E+01   1.449629E+01   6.092211E+01   2.439633E+01
   1.617304E+00   5.643156E-01   3.165294E-01   1.653234E-01   2.792204E-01   2.031741E-01   1.550117E-01   9.666425E-01   8.947165E-01   1.216825E+00   1.673489E+00   1.400191E+00   8.638206E-01   1.310256E-01   7.653285E-01   1.962985E-01   4.554148E-01   3.785928E-01   1.268255E-01   2.055606E-01   8.177139E-01   5.522537E-01   7.698592E-01   1.836480E-01   1.034575E-01   3.855637E-01   1.419217E-01   5.211407E-01   1.347100E-01   1.848711E-01   8.099359E-02   7.865024E-02   1.041716E-01   2.828500E-01   1.020729E-01   1.631197E-01   1.951160E-01   8.277364E-01   2.189958E+00   5.710613E+00   5.450593E+00   1.108098E+00   3.730362E+00   1.277799E+01   1.237268E+02   1.267916E+02   2.737764E+01   4.665587E+01   4.626975E+01   3.077948E+01
   4.218368E+00   7.831476E-01   3.579217E-01   7.442823E-02   5.205848E-01   8.604508E-01   1.241845E+00   1.330848E+01   1.621894E+00   1.055000E+00   1.162213E+00   1.409554E+00   2.035158E-01   4.275980E-01   9.073971E-01   6.884516E-01   3.807576E-01   3.772545E-01   2.101960E-01   3.503393E-01   7.758242E-01   3.267891E-01   2.309457E-01   2.628064E-01   1.368946E-01   3.151784E-01   1.481900E-01   8.489610E-02   2.083026E-01   2.551807E-01   3.088916E-01   3.474371E-01   3.088477E-01   3.757224E-01   1.424344E-01   3.846091E-01   1.937114E-01   2.629888E-01   7.386227E-01   1.402429E+00   2.957826E+00   1.529911E+00   2.136208E+00   1.510732E+01   5.308471E+01   1.934752E+01   5.881590E+00   1.276864E+01   1.311834E+01   2.043546E+00
   1.305596E+00   2.825198E-01   4.379677E-01   6.283169E-01   7.781731E-01   1.201253E+00   1.434422E+00   8.652402E+00   6.578837E+00   3.444267E+00   1.905587E+00   8.457037E-01   4.954224E-01   7.760754E-01   2.745787E+00   4.467358E-01   9.360360E-01   7.497548E-01   7.463540E-01   1.663980E-01   1.009565E+00   7.015351E-01   1.640763E+00   8.049976E-01   1.040060E-01   7.117085E-01   2.236447E-01   2.336226E-01   8.662775E-01   3.202515E-01   3.254319E-01   2.486382E+00   2.415895E-01   2.857729E-01   1.891035E-01   5.100593E-01   7.537261E-01   9.032819E-01   3.457122E-01   3.751187E-01   1.935824E+00   3.680763E+00   4.956363E-01   2.112853E+00   4.586850E+00   2.370329E+01   5.590458E+00   4.342631E+00   6.526316E+00   4.503831E-01
   5.213371E+00   8.722214E-01   1.066406E+00   1.105756E+00   1.044954E+00   1.375980E+00   1.326451E+00   2.494213E+00   8.240239E+00   1.784421E+00   2.424681E+00   2.080315E+00   2.915490E+00   1.541602E+00   5.051913E-01   9.164539E-01   1.868673E+00   1.295176E+00   3.212972E-01   3.907779E-01   1.344269E+00   1.619624E+00   2.253620E+00   3.761036E-01   4.120954E-01   9.191326E-01   2.505120E+00   1.176622E+00   7.461627E-01   4.261946E-01   7.882374E-01   9.315192E-01   1.225537E+00   3.691221E-01   1.528853E-01   3.007530E-01   1.338899E+00   6.694391E-01   3.323028E+00   3.196317E+00   4.209967E+00   2.727556E+00   8.947847E-01   4.895775E-01   2.073277E+00   1.997719E+00   1.274616E+00   1.031317E+00   2.502055E+00   7.997882E-01
   1.792215E+00   3.212329E-01   1.292553E+00   1.204234E+00   2.473399E+00   8.775070E-01   4.922401E-01   7.164276E-01   6.857095E-01   6.435794E+00   8.523037E-01   6.975632E-01   2.189059E+00   4.974796E+00   2.473821E+00   4.948182E-01   3.956209E+00   1.058489E+00   5.185337E-01   1.412353E+00   4.952574E+00   3.388037E+00   1.201195E+00   3.001615E+00   1.200489E+00   5.074360E+00   1.796562E+00   9.988747E-01   5.516705E+00   1.941917E+00   9.951869E-01   1.533563E+00   1.279129E+00   5.363147E-01   4.231825E-01   3.672465E-01   1.378688E+00   2.746319E+00   1.810390E+00   2.783525E+00   4.078298E+00   2.674671E+00   1.335804E+00   5.427290E-01   5.451607E-01   1.473935E+00   3.489556E-01   4.468357E-01   2.026776E+00   2.709524E+00
   1.986240E+01   7.153611E+00   3.363992E+00   5.373892E-01   3.027875E-01   1.112728E+00   9.652650E-01   2.200444E+00   5.141299E+00   1.013771E+00   1.601577E+00   4.040465E-01   3.535698E-01   1.327435E+00   1.965257E+00   4.083079E+00   1.655289E+00   9.559059E-01   5.270940E+00   5.447368E+00   2.001987E+01   7.312374E+00   9.842841E-01   4.190953E+00   8.343808E+00   1.339167E+01   5.105327E+00   2.271232E+00   4.351701E+00   7.312911E+00   9.238418E-01   9.186721E-01   2.798063E+00   8.872952E-01   1.111165E+00   3.303993E-01   8.184804E-01   1.116041E+00   2.913025E+00   7.089593E+00   2.349770E+00   2.874970E+00   2.156533E+00   1.114218E+00   4.618598E-01   1.130393E+00   3.422069E+00   3.894426E+00   6.603567E+00   2.118764E+00
   4.742688E+01   5.943825E+00   8.443571E+00   8.712481E-01   5.771434E-01   4.875686E-01   3.633868E-01   1.613056E+00   1.261654E+00   8.559677E-01   6.706595E-01   4.517396E-01   2.859107E-01   2.046601E+00   1.523027E+00   3.069498E+00   2.632137E+00   2.106260E+00   2.897242E+00   1.342027E+00   5.095765E+00   4.590049E+00   4.260365E+00   1.655643E+01   7.843987E+00   7.244094E+00   2.872202E+01   1.849885E+00   2.802169E+00   3.550982E+00   5.451189E-01   3.435660E+00   1.945525E+00   8.775645E-01   1.021244E+00   1.703621E+00   1.120316E+00   1.174710E+00   5.964833E+00   1.627003E+01   5.006577E+00   3.231049E+00   1.502890E+00   7.050492E-01   6.169099E-01   1.209058E+00   1.870422E+00   1.621605E+00   9.588951E-01   5.350745E-01
   3.038667E+01   1.684278E+01   2.433614E+01   3.050876E+00   4.038373E+00   4.644088E-01   2.158766E-01   6.151686E-01   2.798360E-01   6.693943E-01   4.386393E-01   1.623470E+00   1.572629E+00   3.350978E+00   2.722569E+00   1.306852E+00   7.376949E-01   1.095367E+01   9.888861E+00   6.897921E+00   2.782529E+00   1.019755E+00   8.511879E+00   8.823971E+00   3.517017E+00   2.148942E+00   1.343610E+00   7.917168E-01   4.569170E+00   2.632606E+00   1.829110E+00   5.173168E+00   8.822423E+00   2.207683E+00   3.677762E+00   4.727830E+00   7.863353E+00   1.039911E+01   6.871029E+00   9.962659E+00   3.716995E+00   6.070718E+00   5.907717E-01   4.516248E-01   2.664427E-01   1.573088E-01   6.596005E-01   4.664983E-01   1.895598E-01   4.307135E-01
   3.428582E+01   7.398393E+01   2.249112E+01   3.553938E+00   1.838283E+00   9.562485E-01   6.483039E-01   2.068067E-01   3.399177E-01   2.400982E-01   1.106801E+00   7.477427E-01   5.097034E-01   1.778950E+00   5.563340E+00   2.618480E+00   2.273642E+00   3.694329E+00   4.931363E+00   3.327492E+01   3.078848E+00   4.380005E+00   1.082601E+01   6.999786E+00   6.128504E+00   3.991752E+00   1.139721E+00   3.835380E+00   8.785114E+00   1.858743E+00   7.163139E-01   1.130036E+00   1.128955E+00   1.524272E+00   3.311002E+00   2.836627E+00   5.761149E+00   1.391744E+01   6.577333E+00   1.311171E+01   2.589019E+01   2.750536E+00   4.662427E-01   4.140898E-01   7.503375E-01   5.622425E-02   4.377838E-02   1.012284E-01   3.054022E-01   1.935787E-01
   3.254045E+01   2.746041E+01   4.578042E+00   1.524270E+00   5.514764E-01   8.418497E-01   4.920113E-01   1.051512E-01   1.667431E-01   3.627620E-01   2.070686E-01   2.366559E-01   2.889312E-01   9.300813E-01   2.731185E+00   7.585736E+00   1.091335E+00   3.642102E+00   2.473170E+00   7.030409E+00   3.882518E+00   1.055973E+01   6.184158E+00   6.427645E+00   3.474178E+00   1.483583E+00   6.503108E-01   1.089808E+01   3.373026E+01   1.133761E+01   1.246935E+00   3.764638E-01   2.516234E-01   8.434039E-01   4.276839E-01   8.230958E-01   1.099050E+01   1.133029E+01   5.060610E+00   1.018833E+01   2.755476E+00   1.901586E+00   1.034227E+00   1.020656E+00   6.408498E-01   3.120731E-01   1.732892E-01   3.717802E-01   3.916835E-01   1.743624E-01
   5.546645E+01   2.627434E+01   1.482773E+01   2.364496E+00   6.467821E-01   1.639853E+00   3.974044E-01   1.548630E-01   9.440588E-02   2.917450E-01   9.679265E-01   9.313414E-01   5.288721E-01   1.074044E+00   9.560642E-01   2.862927E+00   5.471449E+00   1.957809E+00   2.169851E+00   1.537388E+00   1.570984E+01   2.644261E+01   2.533644E+01   8.031160E+00   3.574944E+00   1.665820E+01   2.129206E+00   1.465833E+01   1.562534E+01   2.249949E+00   5.517759E-01   2.666947E-01   3.069597E-01   6.063603E-01   3.404708E-01   4.313359E+00   4.320533E+00   2.750916E+00   1.012360E+01   3.413758E+00   2.963476E+00   9.121589E-01   1.190424E+00   6.464294E-01   1.626692E+00   1.865700E+00   3.802160E-01   3.020633E-01   1.177436E+00   1.214886E-01
   5.831215E+01   1.334179E+01   1.143615E+00   6.425675E-01   5.693520E-01   9.110863E-01   4.935897E-01   1.084302E-01   4.634511E-01   5.804109E-01   2.757468E-01   4.076961E-01   3.617439E-01   3.246378E-01   9.203951E-01   4.163941E-01   3.514008E+00   1.005955E+01   3.184571E+00   7.748624E+00   1.075751E+01   3.875987E+01   3.006528E+01   5.829287E+00   1.937762E+01   1.020696E+01   5.694919E+00   2.230303E+01   6.318523E+00   4.646627E+00   8.833376E-01   1.286277E+00   1.703071E+00   1.075936E+00   3.407538E+00   7.642076E+00   1.895297E+00   1.146065E+00   6.273980E-01   1.298136E+00   8.465320E-01   1.764453E+00   8.106266E-01   6.905873E-01   3.069461E+00   1.204688E+00   3.384534E-01   6.785952E-01   1.001221E+00   2.927137E-01
   2.252831E+00   3.714295E+00   1.339726E+00   3.978161E-01   3.513918E-01   1.630693E-01   4.459793E-01   2.212656E-01   1.666575E+00   1.519142E+00   1.406858E-01   4.899036E-01   1.357154E+00   6.467302E-01   3.883168E-01   2.856200E-01   3.936021E-01   3.828589E+00   2.780667E+00   6.828100E+00   1.201523E+01   4.301534E+01   2.487396E+01   2.584913E+01   1.460312E+02   1.119634E+02   1.142962E+01   1.876987E+01   8.077732E+00   9.833705E+00   1.167118E+01   3.052576E+00   1.020859E+01   4.294965E+00   5.358378E+00   4.183281E+00   1.959993E+00   1.226508E+00   4.503256E-01   7.008447E-01   8.287188E-01   1.048131E+00   2.510206E+00   1.203141E+01   3.568357E+00   5.118011E+00   1.173105E+00   4.572610E-01   1.382581E+00   4.999044E-01
   3.069740E+00   2.831714E+00   7.210426E-01   1.229950E+00   1.771496E-01   1.321482E-01   5.070977E-01   3.109715E-01   5.599704E-01   3.497530E-01   1.144222E-01   8.818913E-02   5.353690E-01   4.756339E-01   2.864923E-01   3.027935E-01   4.516153E-01   7.441287E-01   1.137937E+00   6.151234E+00   2.831527E+01   2.230800E+01   1.020363E+02   1.021323E+02   2.083422E+02   4.424282E+01   7.228965E+01   4.594976E+01   3.412332E+01   1.457658E+01   1.879403E+01   1.315637E+01   2.378153E+01   1.167441E+01   2.830411E+00   1.819498E+00   3.220032E+00   2.250343E+00   5.575005E+00   5.764673E-01   6.588067E-01   1.136855E+00   2.515347E+00   1.319977E+01   1.243228E+01   7.346166E+00   1.346929E+00   1.785983E+00   7.615207E-01   3.562432E-01
   9.391899E-01   2.373501E+00   2.700593E+00   1.688355E+00   8.306104E-01   2.047692E-01   1.787721E+00   9.852139E-01   7.160715E-01   2.853002E-01   2.113273E-01   2.799070E-01   3.579005E-01   7.571560E-01   2.055434E-01   2.257909E-01   6.580956E-01   7.316812E-01   7.347956E-01   1.411663E+00   2.537494E+00   2.650853E+01   1.889300E+02   1.839007E+02   3.464649E+02   7.952580E+01   4.438824E+01   7.236946E+01   3.714341E+01   2.156521E+01   2.344728E+01   5.313824E+01   2.336488E+01   9.608783E+00   1.787883E+00   1.209332E+00   6.789865E+00   6.281927E+00   2.570423E+01   1.562959E+01   6.829484E+00   4.677753E+00   3.100132E+00   5.151183E+00   1.839751E+00   5.979062E-01   1.187787E+00   4.907936E+00   4.151936E+00   6.463958E-01
   5.577534E-01   4.968780E-01   1.125099E+00   1.181391E+00   8.101416E-01   6.657162E-01   1.111599E+00   3.179039E+00   2.520315E+00   1.917594E+00   1.702694E-01   2.142747E-01   3.676812E-01   2.436670E-01   5.033823E-01   3.971972E+00   1.500400E+00   1.334078E+00   7.996481E-01   2.743622E+00   4.012557E+00   1.580158E+01   9.854884E+01   8.034737E+01   9.222834E+01   4.625473E+01   3.206815E+01   9.405128E+00   1.604932E+01   9.473915E+00   6.741216E+00   1.955929E+01   2.258895E+01   1.149498E+00   2.165681E+00   1.093550E+00   3.105414E+00   2.470942E+01   4.485125E+01   5.905148E+01   1.628611E+01   1.821846E+00   1.825236E+00   1.718326E+00   7.267959E-01   1.798288E+00   1.064732E+00   2.205488E+00   6.962848E-01   5.497982E-01
   1.844023E-01   1.780536E-01   2.165845E-01   1.236264E-01   1.670210E-01   4.685684E-01   1.323936E+00   1.073764E+00   7.073064E+00   8.054494E-01   7.380829E-01   3.639187E-01   4.855662E-01   4.053538E-01   1.222718E+00   2.503465E+00   2.587951E+00   3.696417E+00   4.269356E-01   1.573420E+00   1.244808E+01   9.651247E+00   1.598444E+01   5.155532E+01   1.079259E+02   2.092007E+02   1.920055E+01   1.119993E+01   9.257472E+00   2.838593E+00   6.025890E+00   1.117887E+01   4.438714E+00   8.196971E-01   7.055632E-01   4.416589E+00   1.265593E+01   4.045344E+01   4.115004E+01   9.609274E+01   2.604553E+01   1.580664E+00   4.220108E+00   5.995353E+00   2.551355E+00   1.307105E+00   9.244236E-01   8.346216E-02   1.501249E-01   9.243207E-02
   7.134091E-02   8.102392E-02   8.403546E-02   2.731755E-02   9.917607E-02   1.602850E-01   1.347481E-01   3.022010E-01   5.993954E-01   4.511938E-01   7.074962E-01   2.350517E-01   4.970416E-01   5.555878E-01   2.687232E+00   4.689786E+00   3.547930E+00   2.583975E+00   2.139875E+00   6.109081E+00   1.325117E+01   1.090861E+01   2.811521E+01   4.439558E+01   1.094003E+02   1.558061E+01   1.097095E+01   8.672527E+00   1.868621E+00   4.497965E+00   3.717926E+00   2.167570E+00   2.653379E+00   1.134456E+00   2.105665E+00   1.208658E+01   1.070715E+01   4.870635E+01   1.521480E+01   3.886444E+01   8.706861E+00   1.716073E+00   1.861828E+00   5.053079E+00   1.582961E+00   1.837429E+00   1.348991E-01   1.102313E-01   8.930952E-02   6.524080E-02
   9.409972E-02   2.726336E-01   1.429566E-01   5.994333E-02   3.188273E-02   8.467790E-02   3.193938E-02   3.289324E-01   2.545480E-01   5.862252E-01   1.364986E+00   6.973764E-01   2.339290E+00   8.168041E-01   1.737690E+00   2.718511E+00   6.081676E+00   4.888012E+00   4.482863E+00   1.777463E+01   6.220914E+01   1.461124E+01   1.351927E+01   1.426551E+01   7.260057E+00   9.893102E+00   5.743556E+00   8.274171E+00   2.534271E+00   5.473137E+00   4.032674E+00   1.065439E+00   1.051825E+00   9.938855E-01   1.765790E+00   2.013688E+01   1.155620E+01   9.052828E+00   6.568165E+00   6.993915E+00   1.160726E+00   1.526942E+00   3.407775E+00   3.452054E+00   8.891389E-01   2.052426E+00   4.337941E-01   3.164546E-01   6.877854E-02   4.210989E-02
   1.982045E-01   1.389971E-01   1.977203E-01   5.935378E-02   2.380903E-02   3.711088E-03   3.458317E-02   1.222601E-01   4.125186E-01   1.028525E+00   7.956791E-01   1.043034E+00   2.529136E+00   5.122674E+00   1.002212E+00   9.302138E+00   4.429902E+00   1.153109E+01   6.764785E+00   2.613309E+01   1.095435E+02   6.778428E+00   1.051840E+01   9.973459E+00   3.922650E+00   3.591065E+00   5.661202E+00   2.159715E+00   1.965726E+00   1.867646E+00   1.198510E+00   4.007962E-01   6.323068E-01   6.324304E-01   8.130495E+00   1.054973E+01   7.729899E+00   2.315902E+01   3.902834E+00   4.677111E+00   4.406394E+00   1.668395E+00   9.138105E-01   5.592144E-01   7.151551E-01   1.124079E-01   6.843980E-02   4.734220E-01   1.893388E-01   3.776475E-01
   5.938567E-01   3.088228E-01   3.021085E-01   4.089152E-02   1.524110E-02   4.613647E-03   3.043028E-02   3.148598E-01   4.384979E-01   2.878787E-01   1.118691E+00   1.165307E+00   1.023451E+00   6.838748E-01   1.391234E+00   6.475878E+00   1.115101E+01   2.642152E+00   2.991487E+00   3.215928E+01   5.818163E+01   2.390690E+01   4.658620E+01   5.554961E+00   5.855205E+00   3.359276E+00   5.190616E+00   1.951232E+00   2.617329E+00   1.190704E+00   4.016270E-01   8.670117E-01   5.005330E-01   9.227715E-01   2.372561E+00   4.539224E+00   1.299799E+01   5.755296E+00   1.225145E+00   2.007181E+00   7.762836E-01   1.182237E+00   1.369003E+00   7.270421E-01   6.094138E-01   2.931775E-01   4.183202E-01   6.487857E-01   3.270614E-01   1.259107E+00
   1.667471E-01   9.021500E-01   1.811161E-01   4.130517E-02   1.067074E-02   5.107482E-03   6.341138E-03   8.412758E-02   1.444099E-01   3.076830E-01   2.463409E+00   4.700925E-01   1.638491E+00   2.039900E+00   3.701425E+00   6.923255E+00   2.247633E+00   3.556939E+00   3.228717E+01   2.532579E+01   9.035056E+01   1.011690E+02   3.153174E+01   1.007086E+01   1.749013E+01   5.530967E+00   1.326199E+01   3.137681E+01   9.755766E+00   1.259305E+00   3.000073E+00   6.809124E-01   2.301573E-01   3.141844E+00   6.471847E+00   3.999016E+00   2.276142E+00   1.381551E+00   4.202491E-01   1.646024E-01   1.784527E+00   1.316510E+00   1.159678E+00   7.837862E-01   2.422408E-01   2.683407E-01   1.457587E-01   4.691881E-01   1.206991E+00   1.501705E+00
   6.222780E-02   2.146007E-02   5.366766E-02   3.786011E-02   1.358428E-02   2.487374E-03   2.186351E-03   9.060230E-03   6.385042E-02   2.627247E-01   5.520465E-01   1.996144E+00   5.189818E+00   2.004567E+00   2.509415E+01   1.390411E+01   1.995841E+01   4.095429E+00   5.076431E+01   2.580846E+02   2.465455E+02   1.562209E+02   5.232670E+01   6.745909E+00   9.978933E+00   1.390184E+01   7.705790E+01   2.037263E+01   2.712362E+01   2.229078E+00   7.184479E+00   2.871238E+00   1.110425E+00   3.121211E+00   1.084759E+00   2.290476E+00   1.725625E+00   7.075418E-01   1.297866E-01   2.443357E-01   1.038249E+00   1.151144E+00   6.376067E-01   5.182111E-01   9.855817E-02   2.823951E-01   1.659373E-01   4.553193E-01   4.411764E-01   3.082988E+00
   8.462652E-03   1.117663E-02   1.661005E-02   6.981356E-02   6.468136E-03   2.351435E-03   3.461625E-03   1.028073E-02   8.339827E-02   6.651646E-01   1.458963E+00   1.253795E+00   2.758395E+00   3.498008E+00   1.414858E+00   2.548929E+00   4.666155E+00   2.394155E+01   6.416945E+01   3.859579E+01   2.848972E+02   8.248233E+01   3.896595E+01   1.116078E+01   8.104891E+00   3.392539E+01   2.365865E+01   8.584709E+00   1.118289E+01   9.262831E+00   8.844340E+00   5.376029E+00   2.389468E+00   3.227909E+00   2.950577E-01   8.028861E-01   7.003755E-01   2.564262E+00   4.155979E-01   5.437858E-01   7.495030E-01   6.978652E-01   3.300417E-01   2.035095E-01   8.717189E-02   1.342425E-01   8.144756E-02   1.136973E-01   2.712752E-01   1.431205E+00
   1.369683E-02   2.195191E-02   1.940429E-02   6.482355E-02   1.836971E-02   3.591046E-03   6.667771E-03   4.423166E-03   1.185122E-01   1.048944E+00   1.177694E+00   2.189765E+00   5.610199E+00   3.506449E+00   5.769063E+00   1.493160E+00   9.279680E+00   1.715155E+01   3.053000E+01   8.783357E+01   4.338629E+02   1.608403E+02   3.614880E+01   1.972570E+01   4.073645E+01   3.713461E+01   1.046077E+01   1.577233E+01   1.365529E+01   4.683360E+01   2.501466E+00   1.083874E+00   4.304431E-01   4.415281E-01   3.989159E-01   8.493870E-01   7.585376E-01   1.606013E+00   4.620650E+00   1.772626E+00   1.452406E-01   8.325357E-02   2.779290E-01   3.432106E-01   9.296403E-02   9.894977E-02   9.287064E-02   5.280057E-02   3.059202E-01   1.362122E+00
   4.458198E-02   1.345033E-01   3.222235E-02   4.682675E-02   2.075432E-02   2.368526E-02   3.931643E-02   9.784796E-03   7.156793E-02   3.383970E-01   4.482889E-01   2.514194E+00   6.079608E+00   4.561410E+00   1.314049E+00   1.354399E+00   5.423763E+00   1.891190E+01   1.963243E+01   1.761542E+02   1.521555E+02   2.399895E+02   9.352007E+01   7.211798E+01   2.764379E+02   1.109726E+02   2.700275E+01   1.471494E+02   2.271030E+01   1.172165E+01   3.581599E+00   7.129817E-01   1.446463E+00   2.577279E+00   3.964000E-01   1.115489E+00   3.232781E-01   1.880571E-01   1.562998E+00   1.664893E+00   3.587059E-01   7.740729E-01   1.817674E-01   2.656792E-01   3.198023E-02   7.273784E-02   6.103067E-02   1.826383E-01   4.611006E-01   3.750853E-01
   1.420290E-01   1.151481E-01   2.853211E-02   5.019912E-02   7.625043E-03   5.416423E-03   3.958463E-03   5.507921E-02   3.468108E-01   4.368457E-01   9.218751E-01   7.301237E-01   5.245511E+00   1.890423E+00   1.221867E+00   1.011360E+00   5.929850E+00   2.124112E+01   4.033469E+01   5.421538E+02   5.424660E+02   5.008633E+02   1.494985E+02   1.635023E+02   7.522686E+01   1.636853E+02   1.222563E+02   3.813479E+02   2.102682E+02   1.480130E+02   8.119100E+00   5.494306E+00   4.413734E+00   3.594263E+00   3.594897E-01   6.905892E-01   5.352756E-01   1.422765E+00   5.273999E-01   3.809952E-01   8.686230E-01   4.178354E-01   4.564841E-02   4.630387E-02   1.322586E-02   1.810676E-02   1.228851E-01   1.079520E-01   2.329068E-01   1.317858E-01
   2.103763E-02   2.516392E-02   2.038850E-02   7.046417E-03   4.115950E-03   4.950818E-03   1.018069E-02   8.847741E-02   4.211682E-01   5.614601E-02   8.774301E-02   1.403564E+00   2.680492E+00   1.796457E+00   1.935782E+00   4.700815E+00   8.610483E+00   8.910806E+01   9.821931E+01   9.844267E+02   2.185446E+02   3.565101E+02   3.150493E+02   2.708794E+02   5.310770E+01   5.608121E+01   1.772341E+02   2.372790E+02   2.538842E+02   3.024315E+02   2.846866E+02   2.802483E+01   2.392393E+01   4.004998E+00   2.082639E+00   2.601483E+00   1.381808E+00   5.076364E+00   4.295741E+00   5.796015E-01   1.341700E+00   4.354189E-01   9.749097E-02   8.543988E-02   7.936532E-02   7.902818E-02   3.978197E-02   1.723788E-01   2.332506E-01   1.157282E-01
   1.834132E-02   7.490203E-03   1.120611E-02   8.504627E-03   1.544495E-02   1.047089E-02   8.628953E-03   1.220548E-01   4.248425E-01   3.990839E-02   5.933771E-02   3.117721E-01   7.252699E-01   2.192848E+00   2.841549E+00   3.505402E+00   9.366251E+00   1.785840E+01   8.718424E+00   5.934573E+01   8.747219E+01   3.025011E+02   3.443542E+02   4.185223E+02   1.082107E+02   4.367097E+01   1.095448E+02   2.664074E+02   1.136671E+02   3.455495E+02   9.512617E+01   2.028709E+02   3.529489E+01   7.964245E+00   1.214701E+01   6.058317E+00   9.206720E+00   8.138934E+00   7.895850E+00   3.192783E+00   1.675848E+00   1.072753E+00   3.432877E-01   1.163220E-01   9.112032E-02   6.916801E-02   1.933782E-01   3.339588E-01   2.723850E-01   1.051686E-01
   9.230304E-03   2.157954E-02   7.691689E-03   2.395642E-02   3.310926E-02   6.400946E-02   2.725480E-02   2.752345E-02   3.365650E-02   2.197369E-02   2.991804E-02   1.111293E-01   4.128031E-01   8.246124E-01   6.175919E+00   6.795025E-01   8.303697E-01   1.891237E+00   1.327220E+01   1.022528E+02   5.907390E+01   6.663721E+01   1.022690E+02   2.627764E+02   1.185726E+02   1.002721E+02   1.155607E+02   2.133031E+02   2.526601E+02   5.600736E+02   5.278030E+02   5.439381E+01   7.054005E+01   5.832539E+01   4.034128E+00   2.230011E+00   6.610530E+00   2.872879E+00   4.069645E+00   2.615339E+00   1.269763E+00   1.400284E+00   3.398283E-01   2.047019E-01   4.191743E-02   1.455977E-01   1.727596E-01   4.493903E-01   1.612694E-01   6.214787E-02
   2.317482E-02   1.272335E-02   3.670532E-02   6.875817E-02   1.924693E-01   7.119680E-02   3.636518E-02   4.170241E-03   4.022116E-03   2.656008E-03   3.307031E-02   4.406858E-01   3.351808E-01   9.727999E-01   1.691737E+00   1.036746E+00   2.873780E+00   2.446615E+00   7.878017E+00   3.618372E+01   1.623778E+02   1.167249E+02   1.362467E+02   2.415155E+02   1.288537E+02   2.421282E+01   9.159554E+01   2.851232E+02   1.045390E+03   1.899911E+03   1.188046E+03   1.568704E+02   2.127224E+01   1.658040E+01   8.425812E+00   3.517320E+00   2.442029E+00   7.866881E+00   4.816426E+00   3.529448E+00   5.623379E+00   1.610247E+00   3.680309E-01   1.526854E-01   2.397427E-01   9.542392E-01   1.732456E+00   1.104848E+00   4.315576E-01   1.111098E+00
   6.089579E-02   9.698364E-02   1.583938E-01   2.096922E-01   2.971745E-01   9.086810E-02   2.212370E-02   1.418868E-02   7.815195E-03   1.610576E-02   1.112704E-01   2.143499E-01   2.618685E-01   8.653082E-01   2.788225E+00   1.791706E+00   2.885669E+00   3.831171E+00   1.749681E+00   9.084074E+00   5.523694E+01   6.852454E+01   1.185665E+02   2.234489E+02   5.687496E+01   2.265359E+02   3.857143E+02   9.753352E+01   1.490258E+02   2.637462E+02   1.296688E+03   6.384862E+01   1.105410E+01   9.093832E+00   2.566648E+00   3.703056E+00   1.256099E+00   6.175559E+00   4.900911E+00   2.552851E+00   2.340999E+00   2.700124E-01   3.305271E-01   1.333387E-01   1.519972E-01   2.936301E+00   1.890373E+00   1.740241E+00   1.897463E+00   3.179896E-01
   3.513402E-01   2.746534E-01   1.133365E-01   2.075809E-01   3.897972E-01   3.627830E-02   1.744616E-02   1.231391E-02   3.685013E-02   2.459994E-02   1.670368E-01   6.416154E-02   1.115107E-01   1.016240E-01   1.018911E-01   1.601421E+00   2.023129E+00   6.166137E+00   2.809310E+00   7.522530E+00   3.096502E+01   3.153800E+01   1.082215E+02   6.617251E+02   3.471336E+02   6.381858E+02   8.879603E+02   2.069146E+02   1.211529E+02   9.856241E+01   1.767520E+02   4.139180E+01   7.982979E+00   1.119221E+01   4.108833E+00   1.895765E+00   6.236565E+00   7.988902E+00   1.008344E+00   1.541886E-01   2.278204E-01   4.220206E-01   2.593131E-01   1.396785E-01   3.678515E-01   1.121089E+00   1.606956E+00   4.099056E-01   4.389703E-01   1.427453E-01
   1.591927E-01   4.022715E-02   9.343771E-02   1.252289E-01   2.479790E-02   2.235407E-02   2.038511E-02   2.393569E-02   4.058039E-02   1.849671E-02   4.679994E-02   2.507898E-02   5.611389E-02   2.960635E-01   2.152797E-01   1.212092E-01   2.755964E-01   8.003954E-01   3.141838E+00   4.552901E+00   1.617305E+01   4.329526E+01   4.870434E+02   6.729830E+02   3.037338E+02   4.812513E+02   3.679661E+02   1.215688E+02   4.485813E+02   1.004168E+02   1.143863E+02   1.635622E+01   2.901096E+01   9.572861E+00   1.526526E+01   1.028093E+00   1.092388E+00   1.416473E+00   1.738480E-01   1.130900E-01   7.441512E-02   3.519294E-02   2.554973E-01   1.246776E+00   1.634911E+00   1.013346E+00   3.572754E-01   2.525009E-01   1.922712E-01   2.951000E-01
   1.933424E-01   5.955580E-02   1.445999E-01   1.026748E-01   6.997868E-02   7.501064E-02   3.403341E-02   9.474548E-03   1.725889E-02   4.975805E-02   7.409097E-02   3.052106E-02   4.845427E-02   4.083329E-01   9.929135E-01   1.030848E+00   9.839636E-01   9.907185E-01   1.687556E+00   2.893439E+00   1.286433E+02   1.549907E+02   2.366784E+02   1.640708E+02   1.942992E+02   1.781395E+02   2.399543E+03   5.904404E+02   1.214153E+03   1.554537E+02   1.690785E+02   5.060822E+01   4.651149E+01   6.852866E+00   1.148774E+00   6.107466E-01   7.813702E-01   6.432365E-02   9.003197E-02   4.270166E-02   2.168072E-02   9.036785E-02   5.885440E-01   5.135763E+00   9.303674E-01   1.760583E+00   2.178612E-01   3.559608E-01   6.316549E-01   1.342109E-01
   1.307835E-01   5.119629E-02   8.205187E-02   9.957094E-02   5.153023E-02   8.439387E-02   1.418699E-02   6.124420E-03   9.380204E-03   5.018751E-02   9.235408E-02   1.368324E-01   1.231685E-01   9.320384E-01   3.521728E+00   2.372754E+00   2.581035E+00   3.793819E+00   1.474830E+00   7.285396E+00   2.358526E+02   5.339323E+02   1.160313E+02   1.181832E+02   5.211598E+01   7.797121E+01   6.124518E+02   2.259406E+02   3.899352E+02   7.244444E+01   5.539763E+02   3.234870E+01   5.530483E+00   7.847848E+00   1.225497E+00   2.400262E-01   2.516901E-01   2.670093E-01   3.770264E-01   1.437121E-01   4.989549E-01   4.177526E-01   7.500985E-01   9.968711E-01   5.738955E-01   7.862275E-01   8.953083E-01   5.340835E-01   1.765991E+00   4.031729E-01
   2.389507E-01   1.235186E-01   2.804991E-01   2.894722E-01   3.404339E-01   1.256398E-01   8.468129E-02   4.440945E-02   7.268150E-02   7.503743E-02   7.391742E-02   1.248554E-01   9.782419E-02   7.000403E-01   7.369612E+00   4.190712E+00   1.172469E+01   3.927893E+00   2.865430E+00   2.101155E+00   5.801011E+01   1.519086E+02   6.412004E+01   1.474613E+02   3.918586E+01   4.125910E+01   1.192830E+02   1.148462E+02   7.721021E+01   4.532578E+01   1.672690E+02   1.194388E+02   1.334371E+01   3.543834E+01   1.531755E+00   5.568359E-01   5.447745E-01   1.472280E+00   1.443613E+00   4.895914E-01   9.153292E-01   4.891643E-01   6.364315E-01   2.707502E-01   7.446156E-01   3.145377E+00   7.503204E+00   1.010409E+00   6.641361E-01   2.442206E-01