# WEL package for  MODFLOW-NWT, generated by Flopy.
         1         0 
         1         0 # stress period 1
         1        25        25             0.0
         1         0 # stress period 2
         1        25        25         -2000.0
