# UPW package for  MODFLOW-NWT, generated by Flopy.
        55    -1E+30         0         0 
         1
         0
   1.000000E+00
         0
         0
INTERNAL               1  (50E15.6) -1 #hk layer 1                    
   1.004224E+00   1.722361E+00   1.090113E+00   1.714446E-01   1.022909E-01   4.680516E-01   1.055029E-01   3.781002E-01   1.307059E+00   4.062043E-01   3.178331E-01   1.929684E-01   1.531151E-01   1.029950E-01   3.413879E-01   3.904320E-01   8.518217E-01   3.903920E-01   3.356869E-01   1.884181E-01   9.643771E-02   4.332575E-02   3.621187E-02   2.908592E-02   4.069296E-02   6.150921E-02   1.447429E-01   5.001250E-02   5.762011E-02   1.196306E-01   3.512793E-02   1.927561E-01   5.343574E-01   3.327009E-01   2.838461E-01   1.846215E+00   4.671755E+00   4.167092E+00   5.436890E+00   1.545321E+01   1.216536E+01   7.672090E+00   4.462201E+01   8.384888E+01   6.384305E+01   2.106189E+02   7.418552E+00   1.869798E+01   7.365326E+00   3.740392E+00
   3.797747E+00   2.314276E+00   1.608883E-01   2.763910E-01   1.988465E-01   9.821671E-02   4.813263E-01   8.511414E-01   2.706345E+00   7.979542E-01   9.232328E-01   2.880683E-01   4.783224E-01   4.282948E-02   5.189973E-02   7.723320E-02   4.996228E-01   4.341797E-01   1.993475E-01   2.848682E-01   2.443998E-01   8.434252E-02   1.052308E-01   6.078774E-02   3.186756E-02   2.381467E-02   2.602891E-01   1.454114E-01   1.689156E-01   1.138213E-01   5.590257E-02   4.296958E-02   9.617098E-02   1.726187E-01   7.760736E-02   4.174431E-01   7.826539E-01   1.917198E+00   7.339152E+00   3.331518E+00   1.823582E+00   1.307917E+01   1.231829E+01   1.974966E+01   1.270782E+02   5.487084E+01   1.044677E+02   1.295659E+01   6.073746E+01   2.587232E+01
   1.538405E+00   4.679426E-01   2.214564E-01   1.122640E-01   2.290099E-01   1.921245E-01   1.657944E-01   1.237770E+00   1.267006E+00   1.138698E+00   1.761774E+00   1.379989E+00   7.279606E-01   1.360824E-01   8.436311E-01   2.204644E-01   6.884429E-01   4.925666E-01   1.010678E-01   1.420016E-01   4.859836E-01   2.290529E-01   4.009863E-01   1.136601E-01   5.259777E-02   2.663323E-01   1.067111E-01   3.291589E-01   1.163557E-01   1.823095E-01   8.402401E-02   8.489725E-02   8.908164E-02   2.616344E-01   8.689348E-02   1.342970E-01   1.992669E-01   7.437314E-01   1.759569E+00   4.269570E+00   5.494703E+00   9.187888E-01   4.066207E+00   1.156497E+01   1.322322E+02   1.337088E+02   2.558249E+01   5.965963E+01   5.932123E+01   3.459519E+01
   4.617468E+00   7.231721E-01   2.934571E-01   6.030372E-02   5.628655E-01   8.674713E-01   1.487140E+00   1.941970E+01   2.043110E+00   1.111461E+00   1.174121E+00   1.620355E+00   2.055790E-01   5.084760E-01   1.125517E+00   8.267629E-01   4.208798E-01   4.757659E-01   1.793283E-01   2.200281E-01   3.777101E-01   1.612969E-01   1.358122E-01   1.776711E-01   8.162992E-02   2.082727E-01   9.697664E-02   5.225682E-02   1.423452E-01   2.376562E-01   3.128807E-01   4.014443E-01   3.356466E-01   3.878538E-01   1.048145E-01   2.922618E-01   1.446265E-01   2.164408E-01   6.121146E-01   1.081825E+00   2.672713E+00   1.641424E+00   2.097530E+00   1.730844E+01   6.596684E+01   2.066331E+01   6.307951E+00   1.498189E+01   1.647834E+01   2.430616E+00
   9.836276E-01   1.929234E-01   3.294092E-01   4.803276E-01   6.100341E-01   1.289268E+00   1.708237E+00   1.268639E+01   8.375181E+00   3.805578E+00   2.369380E+00   9.598892E-01   6.147602E-01   1.028209E+00   2.811706E+00   4.672981E-01   7.695975E-01   7.466905E-01   6.022422E-01   1.205016E-01   6.710223E-01   3.657678E-01   1.309764E+00   5.535381E-01   6.570476E-02   4.590382E-01   1.801096E-01   1.970835E-01   6.938590E-01   2.555211E-01   3.093225E-01   2.436909E+00   2.389264E-01   2.418437E-01   1.640420E-01   3.803899E-01   6.643017E-01   1.048780E+00   3.319542E-01   3.277337E-01   2.037559E+00   3.698313E+00   5.959526E-01   2.783047E+00   5.212875E+00   3.183064E+01   9.106503E+00   6.397930E+00   9.541066E+00   7.400899E-01
   3.839940E+00   5.946281E-01   8.955497E-01   8.068973E-01   8.366455E-01   1.113604E+00   1.314507E+00   2.956758E+00   1.165854E+01   2.130367E+00   2.658708E+00   2.221624E+00   3.017986E+00   1.334975E+00   5.370689E-01   9.679085E-01   1.787673E+00   1.157008E+00   2.499158E-01   2.398167E-01   8.837781E-01   9.680572E-01   1.668755E+00   3.338148E-01   3.128070E-01   7.873988E-01   1.866209E+00   1.116139E+00   6.247246E-01   3.461734E-01   7.498851E-01   9.380364E-01   9.282380E-01   2.741428E-01   1.194981E-01   2.246293E-01   1.312553E+00   6.235294E-01   3.208434E+00   2.687109E+00   3.883952E+00   2.746892E+00   9.932781E-01   5.563428E-01   2.380477E+00   2.594752E+00   1.553394E+00   1.505046E+00   3.580655E+00   1.295345E+00
   1.325832E+00   2.060225E-01   9.659916E-01   8.042478E-01   1.889534E+00   6.782038E-01   4.585340E-01   7.268251E-01   8.615723E-01   8.907489E+00   1.002436E+00   5.870480E-01   1.836782E+00   4.737732E+00   2.601640E+00   5.788442E-01   3.456523E+00   1.035323E+00   4.034590E-01   1.087652E+00   4.051058E+00   2.993854E+00   1.001575E+00   2.876817E+00   1.125630E+00   4.754590E+00   1.481419E+00   7.332190E-01   4.789791E+00   2.080414E+00   1.002585E+00   1.452468E+00   1.130743E+00   4.041012E-01   3.042500E-01   3.267845E-01   1.339944E+00   2.482430E+00   1.740321E+00   2.859606E+00   3.694452E+00   2.659842E+00   1.562757E+00   5.946196E-01   5.238770E-01   2.011514E+00   4.735614E-01   6.262778E-01   2.936788E+00   3.656672E+00
   1.482152E+01   4.220053E+00   2.114814E+00   2.944918E-01   1.879977E-01   7.340986E-01   7.939091E-01   1.998660E+00   5.253871E+00   1.059911E+00   1.418828E+00   3.585055E-01   3.012814E-01   1.389793E+00   2.544606E+00   4.827218E+00   1.648067E+00   8.808768E-01   3.434774E+00   4.261259E+00   1.617245E+01   7.894436E+00   8.018436E-01   4.359672E+00   1.008158E+01   1.442543E+01   4.904625E+00   2.144174E+00   3.390129E+00   8.671154E+00   8.569249E-01   9.898377E-01   2.821716E+00   8.309914E-01   9.299261E-01   3.489818E-01   9.126971E-01   1.191485E+00   3.025627E+00   7.433798E+00   2.272497E+00   2.625849E+00   2.639295E+00   1.567617E+00   5.479630E-01   1.466665E+00   6.812663E+00   7.259428E+00   1.326318E+01   2.972179E+00
   3.235745E+01   3.318712E+00   4.577382E+00   5.108032E-01   3.506599E-01   3.260628E-01   2.769243E-01   1.331376E+00   1.171557E+00   8.910518E-01   6.179792E-01   3.738836E-01   2.851382E-01   2.206935E+00   1.514085E+00   3.871027E+00   3.425502E+00   2.294538E+00   2.668752E+00   1.197752E+00   4.373797E+00   3.592248E+00   3.589540E+00   1.657508E+01   7.732651E+00   8.138552E+00   3.352223E+01   1.905522E+00   3.176677E+00   4.010847E+00   5.252258E-01   3.892259E+00   2.303937E+00   7.472878E-01   7.858918E-01   1.427510E+00   8.725626E-01   1.057409E+00   5.815072E+00   1.686841E+01   5.186031E+00   3.877202E+00   1.730381E+00   9.568464E-01   9.087425E-01   2.293572E+00   4.057055E+00   3.010391E+00   1.690058E+00   9.250657E-01
   2.214849E+01   8.923472E+00   1.448795E+01   2.086908E+00   2.750975E+00   3.281483E-01   1.736254E-01   5.677711E-01   3.037630E-01   6.174879E-01   4.202780E-01   2.082094E+00   1.969391E+00   4.474364E+00   4.389339E+00   1.922945E+00   1.169588E+00   2.025890E+01   1.188242E+01   6.451478E+00   2.434656E+00   7.305384E-01   6.581376E+00   9.166749E+00   3.482771E+00   2.370670E+00   1.661417E+00   8.935902E-01   5.929714E+00   3.651719E+00   2.243876E+00   6.463769E+00   1.094364E+01   2.389592E+00   3.447132E+00   4.139832E+00   6.608793E+00   9.413162E+00   6.354041E+00   9.613267E+00   4.052051E+00   5.395741E+00   5.324009E-01   5.989619E-01   4.112249E-01   2.947010E-01   1.179354E+00   9.146364E-01   3.681396E-01   7.425069E-01
   2.615851E+01   5.000078E+01   1.808409E+01   2.703808E+00   1.275412E+00   7.661516E-01   6.213982E-01   1.811366E-01   3.273463E-01   2.603829E-01   1.347419E+00   8.461151E-01   5.678458E-01   2.427985E+00   1.055447E+01   4.673551E+00   3.976635E+00   5.619564E+00   7.249006E+00   3.574802E+01   2.416458E+00   3.045472E+00   1.197976E+01   8.790543E+00   7.404692E+00   4.326402E+00   1.279187E+00   4.446883E+00   1.257831E+01   2.744846E+00   1.406489E+00   1.682325E+00   1.698796E+00   2.270560E+00   3.981681E+00   3.299791E+00   5.432759E+00   1.090906E+01   6.938584E+00   1.424234E+01   2.666132E+01   2.658113E+00   4.220253E-01   5.261471E-01   1.126257E+00   1.114090E-01   7.751251E-02   1.407092E-01   4.625492E-01   2.567833E-01
   2.551924E+01   2.329588E+01   4.062176E+00   1.308686E+00   4.745144E-01   7.649453E-01   4.468116E-01   9.210914E-02   1.670382E-01   4.631588E-01   2.672275E-01   2.748423E-01   3.319280E-01   1.222349E+00   2.930760E+00   1.062299E+01   1.515753E+00   4.773738E+00   3.450667E+00   7.220812E+00   3.422897E+00   1.145191E+01   7.022743E+00   9.717588E+00   3.814335E+00   1.457886E+00   6.945690E-01   1.517882E+01   4.658037E+01   1.640776E+01   2.297693E+00   6.714913E-01   3.752803E-01   1.248853E+00   5.944899E-01   1.074428E+00   1.601800E+01   1.130844E+01   4.236629E+00   1.004144E+01   2.469303E+00   2.009840E+00   1.251870E+00   1.084951E+00   7.788064E-01   4.201011E-01   2.330897E-01   4.074110E-01   5.578028E-01   1.668236E-01
   3.903009E+01   2.376742E+01   1.592463E+01   1.833086E+00   5.882837E-01   1.779856E+00   3.780735E-01   1.391950E-01   9.900116E-02   3.737870E-01   1.203366E+00   1.050569E+00   6.585591E-01   1.355088E+00   1.358454E+00   5.127584E+00   7.220463E+00   2.313019E+00   2.424279E+00   1.879217E+00   2.374750E+01   4.345684E+01   4.858195E+01   1.044757E+01   4.127078E+00   2.003578E+01   2.484290E+00   1.610420E+01   1.767165E+01   2.943080E+00   7.463295E-01   3.361010E-01   3.705890E-01   8.462423E-01   4.685487E-01   6.858077E+00   6.018659E+00   3.036661E+00   9.043190E+00   2.759824E+00   2.235920E+00   9.368169E-01   1.415058E+00   9.061962E-01   2.487572E+00   2.579480E+00   4.675017E-01   3.283802E-01   1.170838E+00   1.067744E-01
   4.552183E+01   1.183813E+01   9.994291E-01   5.751603E-01   4.532471E-01   1.104344E+00   5.667081E-01   1.299135E-01   5.769284E-01   7.938581E-01   2.964975E-01   4.365421E-01   4.274158E-01   4.098823E-01   1.271591E+00   6.511632E-01   4.705878E+00   1.449672E+01   4.168293E+00   9.882206E+00   1.649292E+01   6.567345E+01   5.304416E+01   9.120134E+00   2.114421E+01   1.011399E+01   6.323583E+00   2.658285E+01   7.628343E+00   5.466119E+00   1.034177E+00   1.334667E+00   2.161945E+00   1.552077E+00   5.262237E+00   1.143089E+01   2.177989E+00   1.104002E+00   4.910283E-01   1.012629E+00   8.114782E-01   1.964734E+00   9.424002E-01   9.006009E-01   5.719582E+00   1.667850E+00   3.131558E-01   6.878953E-01   9.766403E-01   2.721340E-01
   1.906051E+00   3.608461E+00   1.292542E+00   3.680435E-01   3.493494E-01   2.096155E-01   6.474038E-01   2.966947E-01   2.063195E+00   1.725807E+00   1.739571E-01   5.707958E-01   1.461920E+00   8.526690E-01   5.817474E-01   4.512488E-01   5.851268E-01   5.700645E+00   4.007445E+00   9.720190E+00   2.113439E+01   9.049327E+01   4.791068E+01   4.586995E+01   1.954337E+02   1.624926E+02   1.175971E+01   2.336757E+01   1.118016E+01   1.543741E+01   1.599330E+01   3.920367E+00   1.818976E+01   5.851886E+00   6.406623E+00   5.334974E+00   2.327412E+00   1.379415E+00   4.172028E-01   8.614395E-01   1.115529E+00   1.499834E+00   2.552129E+00   1.325038E+01   4.132670E+00   5.940756E+00   1.132571E+00   4.597934E-01   1.560585E+00   5.474399E-01
   2.444098E+00   2.631622E+00   6.951465E-01   1.554182E+00   1.855408E-01   1.714514E-01   5.367379E-01   3.401083E-01   6.351139E-01   4.146507E-01   1.124609E-01   9.102993E-02   6.135879E-01   5.863814E-01   4.031638E-01   4.028805E-01   5.708385E-01   8.865386E-01   1.772337E+00   1.139042E+01   5.384759E+01   4.403854E+01   2.189451E+02   1.706667E+02   2.979721E+02   5.248785E+01   7.899677E+01   5.182405E+01   4.064579E+01   1.671376E+01   2.587081E+01   1.797993E+01   3.751102E+01   1.593803E+01   3.393947E+00   2.832340E+00   3.271180E+00   2.228307E+00   5.440720E+00   5.571797E-01   7.709563E-01   1.395964E+00   2.677846E+00   1.378974E+01   1.135283E+01   7.455834E+00   1.486956E+00   1.509492E+00   8.503451E-01   3.498339E-01
   8.942285E-01   2.624386E+00   2.837997E+00   2.113752E+00   1.010493E+00   2.204627E-01   2.470839E+00   1.694410E+00   1.000209E+00   3.855735E-01   2.281396E-01   2.580046E-01   3.695869E-01   8.341532E-01   2.230771E-01   2.288107E-01   7.208677E-01   1.083889E+00   1.200159E+00   2.156628E+00   3.532274E+00   3.732266E+01   3.023977E+02   2.149308E+02   4.336293E+02   6.496474E+01   4.618087E+01   8.894161E+01   3.926913E+01   2.341911E+01   2.702933E+01   6.022963E+01   2.640508E+01   9.087744E+00   1.852859E+00   1.320126E+00   6.027857E+00   5.417816E+00   2.219329E+01   1.987738E+01   7.812462E+00   5.127767E+00   3.333445E+00   5.037308E+00   1.724857E+00   5.634599E-01   1.351106E+00   5.654859E+00   3.545008E+00   6.058592E-01
   5.900457E-01   5.534903E-01   1.370910E+00   1.655724E+00   1.129715E+00   9.774632E-01   1.486122E+00   4.809553E+00   3.666872E+00   2.387938E+00   1.877048E-01   2.311567E-01   3.205010E-01   1.777954E-01   4.408098E-01   3.887313E+00   1.857729E+00   1.659392E+00   9.832816E-01   3.286756E+00   4.013638E+00   2.615531E+01   1.263320E+02   1.296862E+02   1.106961E+02   4.227093E+01   2.951604E+01   7.675667E+00   1.584266E+01   8.799650E+00   6.627769E+00   1.910816E+01   2.469736E+01   9.988308E-01   1.905737E+00   8.812473E-01   2.647799E+00   1.984913E+01   4.382212E+01   5.688400E+01   1.713795E+01   1.805932E+00   1.752952E+00   1.985111E+00   7.010733E-01   1.916530E+00   1.575919E+00   2.225489E+00   7.019189E-01   5.329347E-01
   2.340728E-01   1.899576E-01   2.408445E-01   1.258311E-01   2.113892E-01   5.741216E-01   1.904274E+00   1.413513E+00   9.665436E+00   8.886390E-01   8.541850E-01   4.483110E-01   4.551161E-01   3.775023E-01   1.315467E+00   2.262061E+00   2.689531E+00   3.805604E+00   4.564576E-01   1.772204E+00   1.589351E+01   1.332766E+01   2.068278E+01   6.916688E+01   1.089409E+02   1.952626E+02   1.808823E+01   1.167779E+01   9.044644E+00   2.771239E+00   7.529706E+00   1.173116E+01   4.523128E+00   8.950359E-01   6.027204E-01   3.844087E+00   9.388019E+00   3.409567E+01   3.482251E+01   7.842832E+01   2.235411E+01   1.254417E+00   4.296622E+00   6.690830E+00   2.362811E+00   1.454979E+00   1.152216E+00   8.986495E-02   1.445077E-01   7.411760E-02
   9.458358E-02   1.110440E-01   8.949666E-02   2.919258E-02   1.118836E-01   1.914386E-01   1.843043E-01   3.707331E-01   7.772039E-01   5.946626E-01   7.750681E-01   1.896063E-01   4.499633E-01   4.883941E-01   2.282846E+00   4.517084E+00   3.612067E+00   1.985216E+00   2.112810E+00   7.180878E+00   1.732206E+01   1.281731E+01   3.575994E+01   5.807147E+01   1.060963E+02   1.418408E+01   9.025064E+00   7.792811E+00   1.695632E+00   5.182691E+00   3.382806E+00   2.333005E+00   2.974406E+00   9.581609E-01   1.840245E+00   1.022600E+01   8.067353E+00   3.577833E+01   1.189443E+01   3.234274E+01   7.186492E+00   1.177172E+00   1.573345E+00   5.007284E+00   1.367229E+00   1.479389E+00   1.532942E-01   1.081227E-01   9.366372E-02   4.720341E-02
   1.313623E-01   3.573515E-01   1.905533E-01   6.277657E-02   2.763957E-02   8.504671E-02   3.488906E-02   4.332444E-01   3.635029E-01   7.832191E-01   1.138518E+00   5.030150E-01   2.086418E+00   6.750268E-01   1.458812E+00   2.916480E+00   6.755590E+00   4.014676E+00   4.441580E+00   2.402188E+01   7.131220E+01   1.702839E+01   1.364486E+01   1.496339E+01   6.402449E+00   8.164896E+00   6.002339E+00   8.130298E+00   2.744708E+00   5.868764E+00   3.808050E+00   1.259731E+00   1.099297E+00   8.199546E-01   1.418342E+00   1.635568E+01   1.197869E+01   6.625500E+00   5.418022E+00   5.706329E+00   8.393251E-01   1.010896E+00   2.419883E+00   3.192707E+00   7.883508E-01   2.131440E+00   4.333740E-01   3.420390E-01   6.461333E-02   3.351272E-02
   2.664902E-01   1.646578E-01   2.485591E-01   6.333782E-02   1.796997E-02   4.212182E-03   3.838705E-02   1.275821E-01   4.523397E-01   1.197860E+00   9.517217E-01   1.010768E+00   2.539846E+00   5.411620E+00   7.769434E-01   8.670557E+00   3.916619E+00   9.817941E+00   5.863232E+00   3.281648E+01   1.502197E+02   8.975494E+00   1.286858E+01   1.102756E+01   3.742321E+00   3.335759E+00   5.953456E+00   2.238105E+00   1.978260E+00   1.687455E+00   1.163515E+00   3.971821E-01   5.855380E-01   5.395603E-01   6.826037E+00   9.792390E+00   7.344562E+00   1.919146E+01   2.875033E+00   4.368478E+00   3.470299E+00   1.342490E+00   6.258562E-01   4.657456E-01   6.856765E-01   1.311035E-01   7.788212E-02   5.111950E-01   1.945433E-01   3.921254E-01
   6.043004E-01   3.125602E-01   3.891573E-01   3.499530E-02   1.283994E-02   4.457906E-03   3.054904E-02   3.228501E-01   5.610984E-01   3.826877E-01   1.197353E+00   1.234024E+00   9.793852E-01   7.373029E-01   1.295443E+00   6.631090E+00   9.526811E+00   2.372414E+00   3.008792E+00   4.734675E+01   9.647139E+01   3.678904E+01   6.141604E+01   5.468824E+00   5.755775E+00   3.415013E+00   5.677889E+00   1.956269E+00   2.400419E+00   1.174129E+00   3.408071E-01   9.182335E-01   5.444272E-01   9.230025E-01   1.508694E+00   3.497410E+00   1.191402E+01   5.973092E+00   9.942792E-01   1.798103E+00   7.133957E-01   1.241364E+00   1.506369E+00   7.333462E-01   6.534775E-01   3.307963E-01   4.665313E-01   6.436155E-01   3.694143E-01   1.559130E+00
   1.557620E-01   9.649467E-01   1.956023E-01   4.217508E-02   1.009030E-02   4.662230E-03   6.092794E-03   9.446115E-02   1.539605E-01   3.502845E-01   2.760267E+00   4.803850E-01   1.744539E+00   2.069552E+00   3.278578E+00   6.991549E+00   1.783115E+00   2.939919E+00   3.245665E+01   3.250441E+01   1.341001E+02   1.480055E+02   4.058771E+01   1.220746E+01   2.238557E+01   5.817311E+00   1.616941E+01   3.452330E+01   1.009437E+01   1.212859E+00   2.829028E+00   8.067744E-01   2.393528E-01   3.641296E+00   5.589922E+00   3.079118E+00   1.972598E+00   1.260881E+00   4.118211E-01   1.269036E-01   1.671641E+00   1.166849E+00   9.893073E-01   8.281960E-01   2.382770E-01   3.020732E-01   1.453136E-01   5.199035E-01   1.149626E+00   1.692961E+00
   5.666731E-02   1.804714E-02   3.764111E-02   3.112012E-02   1.398323E-02   2.372706E-03   2.194387E-03   9.027230E-03   7.260457E-02   2.967933E-01   5.940269E-01   1.926262E+00   5.624030E+00   2.138137E+00   2.778932E+01   1.658972E+01   2.124619E+01   4.373332E+00   6.006022E+01   3.409572E+02   3.320849E+02   2.086555E+02   6.500520E+01   8.431495E+00   1.505161E+01   2.249060E+01   9.923825E+01   2.127757E+01   2.412226E+01   2.351068E+00   8.217868E+00   2.421596E+00   1.070405E+00   2.783114E+00   8.681791E-01   1.447524E+00   1.456211E+00   7.511863E-01   1.183493E-01   2.357066E-01   8.905536E-01   1.041832E+00   5.202244E-01   4.980905E-01   9.669196E-02   3.577020E-01   1.785073E-01   4.903546E-01   3.775071E-01   3.325486E+00
   8.053569E-03   9.472094E-03   1.026980E-02   4.718542E-02   5.492772E-03   2.038743E-03   3.117361E-03   1.378915E-02   8.643615E-02   6.670529E-01   1.475755E+00   1.165353E+00   2.966845E+00   4.104164E+00   1.828692E+00   3.152481E+00   5.641809E+00   3.083920E+01   6.924262E+01   5.372389E+01   3.396622E+02   9.746114E+01   4.435947E+01   1.470332E+01   1.154416E+01   4.941936E+01   2.583121E+01   8.837975E+00   1.108094E+01   9.478470E+00   9.024915E+00   6.518849E+00   2.082794E+00   3.761273E+00   2.827662E-01   5.230194E-01   6.450224E-01   2.797135E+00   4.093816E-01   5.700642E-01   8.079067E-01   6.578550E-01   2.465283E-01   1.822614E-01   9.064399E-02   1.550863E-01   8.476122E-02   1.098163E-01   2.717708E-01   1.305151E+00
   1.235434E-02   1.681977E-02   1.526102E-02   4.731518E-02   1.389110E-02   2.945775E-03   6.163267E-03   5.428986E-03   9.485956E-02   9.810857E-01   1.221789E+00   2.602521E+00   7.398612E+00   5.066489E+00   7.723689E+00   1.489508E+00   9.916245E+00   1.577654E+01   3.075783E+01   1.185851E+02   5.563659E+02   1.967306E+02   3.825022E+01   2.067026E+01   4.964264E+01   4.778867E+01   9.820683E+00   1.287856E+01   1.064855E+01   4.682268E+01   2.595118E+00   1.317417E+00   4.318022E-01   4.618526E-01   3.737873E-01   8.576670E-01   8.532503E-01   1.458248E+00   4.375122E+00   1.452741E+00   1.315620E-01   7.717787E-02   2.699779E-01   3.252340E-01   9.135675E-02   1.097177E-01   8.318885E-02   5.953998E-02   3.353350E-01   1.376583E+00
   4.663134E-02   1.172095E-01   2.852045E-02   3.026326E-02   1.684872E-02   2.161965E-02   4.194437E-02   9.420752E-03   5.288027E-02   3.578133E-01   5.698228E-01   2.963246E+00   7.909656E+00   5.586474E+00   1.554706E+00   1.311354E+00   3.834284E+00   1.604383E+01   1.899689E+01   1.911791E+02   2.050759E+02   3.025920E+02   1.399426E+02   8.790687E+01   3.370953E+02   1.131115E+02   2.453111E+01   1.243747E+02   2.440359E+01   1.170278E+01   4.433510E+00   8.418265E-01   1.497655E+00   3.029863E+00   3.786597E-01   1.242298E+00   3.820100E-01   1.710382E-01   1.141683E+00   1.080299E+00   3.079946E-01   7.524115E-01   1.501163E-01   2.532316E-01   2.255618E-02   5.757672E-02   5.385999E-02   1.903300E-01   5.001843E-01   4.093164E-01
   1.472140E-01   9.816640E-02   1.840900E-02   3.520844E-02   5.141508E-03   4.461006E-03   3.187144E-03   4.922447E-02   3.688011E-01   4.752728E-01   1.421773E+00   1.001905E+00   6.764514E+00   2.080418E+00   1.251900E+00   1.121584E+00   5.666328E+00   1.795624E+01   4.098695E+01   7.296522E+02   8.350184E+02   9.084526E+02   1.907077E+02   2.041062E+02   8.891269E+01   1.773327E+02   1.285239E+02   4.832206E+02   2.491298E+02   1.968404E+02   8.494223E+00   7.346332E+00   5.676964E+00   4.570713E+00   3.963841E-01   8.180575E-01   6.700292E-01   1.354782E+00   4.578533E-01   2.501721E-01   9.136910E-01   4.294586E-01   3.864154E-02   4.131713E-02   9.767797E-03   1.576236E-02   9.479897E-02   9.044655E-02   1.904510E-01   1.350272E-01
   1.748591E-02   1.589116E-02   1.297052E-02   4.861398E-03   2.925453E-03   3.853408E-03   8.582569E-03   8.661596E-02   3.786461E-01   5.312971E-02   1.008468E-01   2.057439E+00   3.492901E+00   2.089184E+00   1.870112E+00   4.434521E+00   8.338298E+00   7.854356E+01   9.661222E+01   9.865449E+02   3.025071E+02   5.569221E+02   4.439479E+02   3.704775E+02   6.723326E+01   5.837219E+01   2.018944E+02   3.367526E+02   3.004271E+02   4.264881E+02   3.474005E+02   2.745948E+01   2.885570E+01   4.385121E+00   2.395870E+00   3.158995E+00   1.638306E+00   4.870292E+00   4.353051E+00   5.071809E-01   1.763129E+00   5.911345E-01   1.040800E-01   7.031894E-02   6.204672E-02   6.667745E-02   3.040160E-02   1.461440E-01   2.480698E-01   1.285488E-01
   1.421871E-02   4.864865E-03   8.917672E-03   6.534540E-03   1.492653E-02   7.748936E-03   6.820302E-03   1.187186E-01   3.658239E-01   3.801693E-02   7.081985E-02   3.401822E-01   6.666714E-01   2.728807E+00   2.639448E+00   3.356611E+00   7.360435E+00   1.398111E+01   6.893099E+00   6.895760E+01   1.293157E+02   3.996508E+02   4.464183E+02   4.961412E+02   1.364679E+02   5.451172E+01   1.380157E+02   3.836016E+02   1.286157E+02   4.126436E+02   1.228520E+02   2.803622E+02   4.320675E+01   8.648463E+00   1.662367E+01   5.746846E+00   9.792299E+00   8.282468E+00   9.779167E+00   3.481097E+00   2.193182E+00   1.390405E+00   3.415446E-01   8.114427E-02   6.935091E-02   5.993199E-02   1.598683E-01   3.380255E-01   3.077421E-01   1.133534E-01
   6.649619E-03   1.526711E-02   5.549600E-03   1.852841E-02   2.743925E-02   4.912011E-02   2.375378E-02   2.829747E-02   2.966346E-02   1.904585E-02   2.593985E-02   1.033077E-01   3.531502E-01   7.918784E-01   4.944127E+00   5.916303E-01   6.056607E-01   1.445490E+00   1.171178E+01   1.013002E+02   6.037656E+01   7.994059E+01   1.302394E+02   3.222379E+02   1.222246E+02   1.096025E+02   1.268515E+02   3.160059E+02   3.663778E+02   7.202936E+02   7.801065E+02   7.976501E+01   9.661330E+01   7.573823E+01   4.359765E+00   2.539402E+00   7.469054E+00   3.051259E+00   5.068934E+00   3.189317E+00   1.659308E+00   1.351873E+00   2.778679E-01   1.075551E-01   2.591638E-02   1.102007E-01   1.304391E-01   3.977988E-01   1.592976E-01   4.697761E-02
   2.295443E-02   1.097513E-02   3.156192E-02   5.219352E-02   1.772009E-01   5.733114E-02   3.966394E-02   3.565188E-03   3.158062E-03   2.007490E-03   2.290006E-02   3.869228E-01   2.739080E-01   6.617875E-01   1.278977E+00   7.828871E-01   2.595086E+00   1.716395E+00   5.846540E+00   3.146483E+01   1.639392E+02   1.444823E+02   1.374242E+02   2.743541E+02   1.381272E+02   2.994951E+01   1.075172E+02   4.693422E+02   1.556094E+03   3.415642E+03   1.536092E+03   2.151829E+02   2.566941E+01   2.865780E+01   1.104063E+01   5.267402E+00   2.983626E+00   9.404336E+00   5.577363E+00   4.286565E+00   6.796162E+00   1.701762E+00   2.920305E-01   9.284065E-02   1.536600E-01   8.250332E-01   1.707001E+00   1.105713E+00   4.300000E-01   8.884833E-01
   7.341692E-02   1.155226E-01   1.569556E-01   1.490528E-01   2.434301E-01   7.095275E-02   2.050102E-02   1.335546E-02   6.437785E-03   1.219462E-02   7.611861E-02   1.402033E-01   1.599182E-01   5.814337E-01   2.341196E+00   1.415414E+00   2.118691E+00   2.830175E+00   1.318405E+00   7.081888E+00   4.765584E+01   6.599872E+01   1.047913E+02   2.215317E+02   7.384625E+01   3.460115E+02   6.415175E+02   1.378958E+02   2.266139E+02   4.124938E+02   1.807620E+03   8.976721E+01   1.284877E+01   1.069808E+01   3.246275E+00   5.090804E+00   1.574085E+00   6.121775E+00   4.880606E+00   2.725121E+00   2.433846E+00   2.751130E-01   2.793700E-01   1.057834E-01   1.032808E-01   2.364450E+00   1.668595E+00   1.258655E+00   1.660076E+00   2.684278E-01
   4.313771E-01   2.978968E-01   9.486401E-02   1.242340E-01   2.333295E-01   2.530506E-02   1.187950E-02   9.132406E-03   2.523715E-02   1.628230E-02   1.215613E-01   4.607553E-02   7.128086E-02   6.209083E-02   6.229445E-02   1.175351E+00   1.664688E+00   5.045243E+00   1.939479E+00   5.135778E+00   2.335657E+01   2.410712E+01   9.547417E+01   7.684081E+02   4.431375E+02   1.016670E+03   1.647631E+03   3.071773E+02   2.269690E+02   1.772085E+02   2.812643E+02   5.481176E+01   1.076690E+01   1.281129E+01   5.082597E+00   2.525857E+00   6.272871E+00   8.542092E+00   1.102278E+00   1.692309E-01   2.468762E-01   3.962617E-01   1.992051E-01   1.000665E-01   1.972581E-01   7.780163E-01   1.109652E+00   2.545461E-01   3.273723E-01   1.084289E-01
   1.846028E-01   4.160960E-02   7.998958E-02   6.829834E-02   1.364002E-02   1.473123E-02   1.200500E-02   1.323631E-02   2.564665E-02   1.138416E-02   3.106402E-02   1.678338E-02   4.486034E-02   2.072574E-01   1.273204E-01   9.872543E-02   2.479990E-01   8.326349E-01   3.451450E+00   3.763308E+00   1.388556E+01   4.599288E+01   4.316143E+02   7.171339E+02   4.454418E+02   7.648298E+02   6.161729E+02   2.347603E+02   9.207568E+02   1.709620E+02   1.874646E+02   2.270236E+01   3.603396E+01   1.316987E+01   1.794757E+01   1.088468E+00   1.042236E+00   1.565169E+00   1.750982E-01   1.397255E-01   7.371971E-02   2.296533E-02   1.675563E-01   9.847751E-01   1.013015E+00   6.192884E-01   2.448322E-01   1.437595E-01   1.104285E-01   2.559152E-01
   2.056279E-01   5.165081E-02   1.105749E-01   7.751761E-02   3.920297E-02   4.066467E-02   1.496796E-02   5.495746E-03   1.299666E-02   4.231493E-02   5.463759E-02   1.943043E-02   3.291707E-02   3.067222E-01   7.126486E-01   8.057902E-01   7.599391E-01   1.074912E+00   1.875830E+00   3.201013E+00   1.731611E+02   1.655950E+02   2.349342E+02   1.826762E+02   2.827447E+02   3.282547E+02   4.863779E+03   1.072134E+03   2.047859E+03   2.370343E+02   2.815761E+02   7.835384E+01   6.025772E+01   8.907485E+00   1.444254E+00   7.779393E-01   8.490312E-01   6.303375E-02   9.271885E-02   4.005949E-02   2.092158E-02   6.529903E-02   4.567945E-01   4.870215E+00   7.034792E-01   1.289828E+00   1.371446E-01   2.830482E-01   4.742364E-01   1.004255E-01
   1.520051E-01   4.673599E-02   6.194371E-02   7.491304E-02   3.451458E-02   4.015194E-02   6.089348E-03   2.960470E-03   7.715815E-03   4.737037E-02   6.835783E-02   9.172056E-02   8.743490E-02   9.142325E-01   2.570997E+00   1.424480E+00   1.930833E+00   3.790270E+00   1.459819E+00   8.671497E+00   3.271832E+02   7.368866E+02   1.622832E+02   1.653231E+02   9.078523E+01   1.339681E+02   1.110995E+03   3.895715E+02   7.991547E+02   1.284074E+02   9.167249E+02   4.927089E+01   7.766142E+00   7.812555E+00   1.558043E+00   3.316760E-01   2.619601E-01   2.534630E-01   4.049484E-01   1.238078E-01   4.054754E-01   3.385046E-01   6.552044E-01   9.451045E-01   4.971428E-01   6.406605E-01   6.712317E-01   4.711577E-01   1.532928E+00   2.966488E-01
   2.279222E-01   9.989633E-02   2.362585E-01   2.125496E-01   2.858575E-01   6.984268E-02   4.260800E-02   2.696864E-02   5.095922E-02   5.269501E-02   5.137921E-02   9.794836E-02   6.779168E-02   6.069481E-01   7.722945E+00   3.648042E+00   9.989654E+00   3.469793E+00   2.408149E+00   2.525195E+00   6.847442E+01   2.068472E+02   1.189383E+02   2.407051E+02   6.885052E+01   7.213329E+01   1.605975E+02   2.250729E+02   1.044418E+02   6.229545E+01   1.914197E+02   1.845476E+02   2.078898E+01   4.894244E+01   1.747068E+00   6.099574E-01   5.034782E-01   1.571586E+00   1.446665E+00   4.697284E-01   9.934683E-01   4.773312E-01   7.029244E-01   2.826194E-01   6.431652E-01   3.148479E+00   7.464657E+00   8.779156E-01   6.320955E-01   1.712823E-01