# UPW package for  MODFLOW-NWT, generated by Flopy.
        55    -1E+30         0         0 
         1
         0
   1.000000E+00
         0
         0
INTERNAL               1  (50E15.6) -1 #hk layer 1                    
   1.680466E+00   5.595030E+00   1.248024E+01   2.699462E+01   2.367604E+00   5.552372E+00   8.113782E+00   4.944288E+00   2.040193E+01   8.888523E+00   1.234859E+01   3.361996E+00   2.420529E+01   7.851114E+00   4.417620E+00   7.590024E-01   1.048254E+00   7.286235E-01   8.184617E-01   2.448114E+00   2.613589E+00   5.907403E+00   6.234524E+00   5.584262E+00   6.531840E+00   1.431945E+00   1.458237E+00   1.103327E+00   9.877941E-01   2.184889E+00   7.468849E-01   6.299207E-01   9.372258E-01   2.340298E-01   2.355772E-01   3.615785E-01   2.566338E-01   2.387044E-01   1.160728E+00   1.973652E+00   2.639196E+00   5.050428E+00   3.266631E-01   1.923839E-01   1.800233E-01   3.469526E-01   1.697934E+00   2.853724E+00   5.841181E+00   1.019512E+01
   2.926814E+00   1.297172E+01   8.266385E+01   9.261156E+01   1.707839E+00   2.341214E+00   1.286141E+00   6.658627E+00   3.963630E+00   7.673763E+00   2.742126E+00   9.344873E+00   2.570286E+01   5.311892E+00   6.939796E-01   5.039988E-01   3.067235E+00   1.251837E+00   7.657171E-01   1.291500E+00   1.243885E+00   1.413671E+01   1.735513E+01   1.801413E+01   3.742185E+00   2.316886E+00   1.320799E+00   1.071828E+00   2.203168E+00   9.564963E-01   2.295252E-01   3.964121E-01   8.251159E-01   1.492961E-01   3.009951E-02   7.292438E-02   1.245488E-01   1.664800E-01   4.573398E-01   2.076389E+00   3.798445E+00   3.432642E+00   5.303919E-01   6.508249E-01   1.636571E+00   2.760511E+00   1.667594E+00   5.525434E+00   3.112369E+00   5.590583E+00
   5.108974E-01   2.454834E+00   1.978572E+01   1.160727E+01   3.549603E+00   1.446787E+00   6.480044E-01   4.670607E-01   6.716365E-01   4.444774E-01   1.318711E+00   1.854981E+00   2.077420E+01   8.797660E-01   9.325206E-01   1.030462E+00   8.480322E-01   3.928216E-01   1.081931E+00   2.084187E+00   3.774488E+00   4.381524E+01   2.216519E+01   2.512012E+00   4.358522E+00   7.832131E-01   1.183919E+00   4.944698E+00   4.489684E+00   4.883573E-01   5.354578E-01   2.056135E-01   2.671439E-01   2.223932E-01   1.345120E-01   1.393982E-01   4.079576E-02   6.234432E-02   7.577971E-01   1.552997E+00   3.376001E+00   3.759984E+00   1.336242E+00   7.640915E+00   1.082174E+00   3.031612E+00   3.373101E+00   1.438282E+00   3.046195E-01   1.950196E+00
   1.729804E-01   9.977155E-01   4.679979E+00   5.448852E+00   1.760132E+00   7.129189E-01   3.826655E-01   5.208633E-01   6.634662E-01   5.502623E-01   2.309502E+00   8.361163E-01   1.610382E+00   8.047380E-01   5.930389E+00   1.938082E+00   9.729360E-01   6.514804E-01   4.807680E-01   4.076344E+00   1.256917E+01   1.112582E+01   3.430043E+00   6.590256E-01   5.332061E-01   4.196809E-01   1.193510E+00   9.744289E-01   4.897909E+00   2.352753E-01   4.092184E-01   1.410852E-01   3.953402E-01   5.435081E-01   6.601021E-01   2.975857E-01   2.747757E-01   7.585547E-02   3.207852E-01   2.134465E+00   2.703151E+00   3.939286E-01   4.424121E+00   4.252015E+00   2.260656E+00   4.003126E+00   7.114814E+00   1.103549E+00   7.626870E-01   1.152768E+00
   1.218260E+00   3.431284E+00   1.862184E+00   2.507214E+00   5.994033E-01   2.965788E-01   8.145097E-01   4.153400E-01   1.478339E+00   1.731691E+00   1.474700E+00   7.477035E-01   7.151353E-01   6.727400E-01   3.709898E+00   2.127074E+00   1.837807E+00   4.245556E-01   9.978983E-01   1.990930E+00   2.136060E+00   5.226967E+00   1.485072E+00   4.799778E-01   6.285144E-01   1.282992E+00   6.792516E-01   3.604604E-01   8.638520E-01   1.626507E+00   1.158034E+00   3.774455E-01   5.529488E-01   1.061268E+00   1.281804E+00   8.394148E-01   3.695278E-01   8.004363E-02   3.997207E-01   1.690248E+00   1.636116E+00   1.738935E+00   6.561537E-01   1.840471E+00   1.940335E+00   7.088672E+00   1.600714E+00   1.633935E+00   9.825491E-01   1.904154E-01
   1.049622E+00   1.329958E+00   1.674331E+00   1.671930E+00   6.104615E-01   4.885801E-01   2.809225E-01   5.661574E-02   2.423455E-01   2.101183E-01   7.409847E-01   1.668838E+00   2.633488E+00   5.399628E+00   1.264167E+00   1.076530E+00   1.398361E+00   1.149032E+00   6.487880E-01   2.846476E-01   5.909467E-01   1.850268E+00   4.609746E-01   1.578367E-01   3.547733E-01   9.377840E-01   4.602785E+00   1.120281E+00   1.471841E+00   2.955261E+00   7.987299E-01   8.599907E-01   7.765014E+00   6.529926E-01   1.420225E-01   7.063324E-02   1.046795E-01   1.676686E-01   2.803235E-01   1.435442E+00   1.034551E+00   2.348166E+00   6.255803E-01   4.489696E-01   1.371855E+00   1.836266E+00   5.033660E+00   1.588339E+00   1.094414E+00   3.811569E-01
   9.433729E-01   3.638038E+00   1.160113E+00   6.525621E-01   3.845319E-01   2.557067E-01   1.661663E-01   9.333713E-02   2.775835E-02   3.433453E-02   3.083911E-01   6.089737E-01   2.964058E+00   9.231725E+00   2.345477E+00   4.821914E-01   1.661236E+00   5.315524E-01   1.114291E+00   3.228224E-01   2.329418E-01   1.793542E-01   2.195861E-01   3.330137E-01   6.091701E-01   9.660601E-01   1.195320E+00   4.430485E+00   4.230778E+00   9.613463E-01   1.909947E+00   9.678066E-01   8.062875E-01   8.641875E-01   3.168924E-01   3.613671E-02   2.232081E-02   2.676622E-01   4.263758E-01   2.716630E-01   3.970030E+00   3.200445E+00   1.024135E+00   1.256562E+00   3.930001E+00   1.903972E+00   1.330632E+00   2.057296E+00   7.799463E+00   1.285809E+00
   5.264369E-01   2.454126E+00   1.208564E+00   1.810231E+00   5.950288E-01   1.007642E+00   1.700133E-01   1.590434E-01   6.949915E-02   1.435593E-01   6.518022E-01   2.506446E+00   6.882201E-01   1.026023E+00   3.767437E-01   3.455120E-01   2.405820E-01   1.359593E+00   2.517756E+00   3.838793E-01   2.272422E-01   5.271986E-02   1.192914E-01   3.586751E-01   1.012616E+00   1.849764E+00   1.966884E+00   1.255453E+00   4.659401E+00   5.623677E-01   2.364526E+00   7.496490E-01   4.191277E-01   2.411806E-01   1.440136E-01   4.437314E-02   7.126833E-02   1.366710E-01   1.152585E+00   4.226154E-01   3.895364E+00   5.399910E+00   4.527289E-01   4.422215E-01   1.248007E+00   3.535869E+00   2.440633E-01   8.926980E-01   6.574692E-01   2.312247E+00
   4.939525E+00   4.637824E+00   4.358778E+00   1.245131E+00   3.038675E-01   1.180588E-01   2.730624E-01   2.162516E-01   1.590978E-01   6.825233E-02   1.460739E+00   5.987888E+00   1.142191E+00   2.295267E-01   7.524875E-01   4.994536E-01   4.353906E-01   5.622608E+00   1.370983E+00   7.694989E-02   1.678701E-01   3.141122E-01   1.831009E-01   8.554412E-01   9.252133E-01   5.562285E-01   5.504413E-01   1.541223E+00   1.283914E+00   3.323254E-01   9.202679E-01   5.147996E-01   2.698292E-01   2.829102E-01   5.094405E-01   1.734049E-01   1.299238E+00   4.641495E-01   1.193626E+00   8.810102E-01   5.795450E-01   6.019772E-01   5.051845E-01   9.452558E-02   4.382907E-01   1.026103E-01   1.507362E-01   3.076563E-01   7.087213E-01   3.684287E-01
   7.353034E+00   1.072457E+01   7.655394E+00   3.787249E-01   1.337807E+00   3.772267E-01   3.838146E-01   7.203809E-01   9.101529E-02   2.334217E-01   1.543830E+00   3.999634E-01   1.820044E+00   2.689916E+00   1.076843E+00   1.753571E-01   8.208246E-02   1.425121E-01   3.136680E-01   4.025040E-01   7.323205E-02   2.597946E-01   5.151968E-01   2.012044E-01   5.833719E-01   4.555786E-01   4.469306E-01   1.315153E+00   5.391297E-01   1.846302E-01   3.920687E-01   2.455655E-01   2.298427E-01   3.191708E-01   2.381532E-01   1.381054E-01   8.514930E-01   8.213484E-01   1.724951E+00   1.481922E+00   2.757466E+00   1.160126E+00   7.583743E-01   1.296415E-01   1.021705E-01   1.616430E-01   6.340201E-01   3.892541E-01   6.831874E-01   6.649168E-01
   3.759821E+00   2.102850E+00   1.279078E+00   1.563200E+00   1.319604E+00   5.617254E-01   1.423073E-01   2.350406E-01   4.825684E-01   2.287255E-01   4.507914E-01   2.041175E+00   5.241168E+00   8.424039E+00   9.933196E-01   4.819880E-01   1.093598E-01   3.792544E-01   2.030722E-01   2.338513E-01   6.080314E-01   4.819189E-01   3.912117E-01   1.352428E-01   1.804776E-01   4.587078E-01   3.336713E-01   2.995832E+00   8.618802E-01   2.277938E-01   3.782823E-02   1.787168E-01   8.502759E-02   1.778461E-01   1.318419E-01   9.431829E-02   7.501794E-01   2.369431E+00   9.403862E-01   8.632549E-01   4.893190E+00   7.175881E-01   2.146057E+00   2.674417E-01   1.645773E-01   9.820721E-02   3.501728E-01   1.127561E+00   3.529636E+00   1.965160E+00
   2.851154E+01   1.085785E+00   1.004527E+00   6.565849E-01   1.327227E+00   4.569200E-01   2.796776E-01   2.428414E-01   1.895457E-01   1.629898E-01   7.767136E-01   2.654325E+00   1.210862E+01   3.684383E+00   3.878832E+01   5.384566E+00   4.417923E-01   4.710979E-01   1.627764E-01   5.322511E-01   3.511327E-01   6.380655E-02   1.373749E-01   9.138018E-02   2.361057E-01   4.587740E-01   3.935263E-01   1.787102E+00   3.002166E+00   9.968128E-01   1.351813E-01   6.914324E-02   7.000779E-02   1.854863E-01   1.499553E-01   4.700890E-01   8.692245E-01   2.410072E+00   1.588441E+00   5.937957E-01   4.110042E+00   2.536485E+00   1.133315E+00   8.179480E-01   5.884419E-01   1.206765E+00   1.333980E+00   8.922796E+00   3.087265E+00   1.934650E+01
   1.019706E+01   5.639232E-01   8.840496E-01   2.606708E+00   6.362704E-01   4.306087E-01   3.567914E-01   4.609863E-01   2.774420E-01   6.217810E-02   8.752214E-01   2.240947E+00   2.428888E+00   2.529606E+00   1.426854E+00   4.874526E-01   1.296857E+00   4.548044E-01   4.771901E-01   2.372923E-01   1.120603E-01   5.776732E-02   4.019425E-02   7.145668E-01   2.454677E+00   2.634667E-01   4.941367E-01   1.760615E+00   2.478504E+00   6.404379E-01   3.581017E-01   5.194266E-01   5.698776E-01   1.566388E-01   1.807165E-01   5.657946E-01   2.736337E+00   6.569889E-01   9.582429E-01   1.170138E+00   2.958788E+00   4.566651E-01   5.554104E-01   4.364698E-01   1.782392E-01   6.548731E-01   2.351054E+00   9.911537E+00   1.496377E+01   1.623478E+01
   1.239119E+01   5.190858E-01   5.428238E-01   2.506137E+00   1.813348E+00   1.080086E-01   9.511537E-02   7.892733E-02   1.738434E-01   1.413670E-01   4.450226E-01   8.269524E-01   5.186566E+00   1.364342E+00   8.406206E-01   1.970037E-01   2.889809E-01   1.596351E-01   8.069525E-01   5.423732E-01   1.472248E-01   1.846174E-01   1.169378E-01   1.651599E+00   5.080069E+00   7.108566E-01   5.150195E-01   5.748609E+00   2.594249E+00   1.074556E+00   1.971050E+00   2.849070E+00   1.361920E+00   1.269031E+00   6.004590E-01   2.828007E+00   2.255250E+00   3.214565E+00   2.340845E+00   2.770404E+00   1.114873E+00   2.946492E-01   6.758469E-01   6.096378E-01   2.381085E-01   8.825486E-01   1.016071E+01   8.949985E+00   1.737238E+01   1.295104E+01
   9.339884E+00   1.866829E+00   5.799356E-01   4.838382E-01   2.141938E-01   1.964314E-02   3.090093E-02   3.191166E-02   3.221169E-01   4.268036E-01   2.910758E-01   3.533935E-01   2.052107E+00   1.860870E+00   6.593580E-01   1.414788E-01   2.927221E-02   6.359061E-02   1.214833E-01   3.477787E-01   1.451610E-01   3.538056E-02   1.710304E-01   7.455531E-01   1.116682E+00   1.649158E-01   1.663761E-01   1.067829E+00   3.482863E+00   2.448665E+00   6.431373E+00   6.962774E+00   4.403968E+00   4.823219E+00   1.846530E+00   1.685372E+00   2.628168E+00   1.744580E+00   2.142557E+00   5.101157E-01   7.657943E-01   9.753995E-02   3.390464E+00   4.231125E+00   8.073100E-01   2.851879E+00   3.034765E+00   2.444842E+00   2.750414E+00   1.485143E+01
   6.195069E+00   1.582998E+00   1.309609E-01   4.872419E-02   2.447302E-02   2.719556E-02   2.042675E-01   9.640370E-02   2.886035E-01   2.155478E-01   5.433759E-01   7.408409E-01   1.409875E+00   1.836578E+00   4.111466E-01   6.660159E-01   4.238781E-02   2.605738E-01   1.757268E-01   1.118872E-01   9.876540E-02   2.939309E-02   7.062625E-02   5.892355E-01   2.890513E-01   6.740232E-01   1.341655E+00   7.024798E-01   1.262189E+00   8.954529E+00   1.138397E+01   6.753695E+00   1.400155E+00   1.481939E+00   1.534292E+00   1.357225E-01   7.722062E-01   6.803172E-01   2.000598E+00   7.351982E-01   3.412910E-01   5.940282E-01   9.575648E-01   1.004893E+01   5.462380E+00   1.341921E+00   5.759750E-01   1.643695E+00   2.460938E+00   1.417312E+01
   3.463272E-01   1.049917E-01   1.275562E-01   1.297949E-02   6.194557E-02   1.898498E-01   2.843387E-01   8.463182E-02   8.637445E-02   2.313631E-01   1.882445E-01   5.024077E-01   1.889801E+00   8.615197E-01   8.401208E-01   1.133731E+00   5.838194E-01   9.898628E-02   6.373756E-02   9.419684E-02   3.551337E-02   8.622488E-02   2.655475E-01   1.014559E+00   8.354558E-01   4.854518E+00   8.796238E-01   1.309182E+00   9.896186E+00   4.011843E+00   7.136724E+00   1.425455E+01   2.463463E+01   1.495665E+01   1.764359E+00   3.789870E-01   7.896537E-01   1.435342E+00   3.412422E+00   6.027197E-01   2.821457E+00   6.956841E-01   1.748159E+00   4.556434E+00   7.125582E+00   1.450316E+00   7.113481E-01   3.055022E-01   1.147681E+01   2.524459E+01
   1.009377E-01   7.864884E-02   7.184149E-02   7.397620E-02   6.402760E-02   1.270341E-01   3.019462E-01   2.407472E-01   1.480785E-01   3.116969E-01   2.350026E-01   1.280661E+00   8.716350E-01   1.556767E+00   5.604629E+00   8.364126E-01   5.243295E-01   9.484954E-02   9.416109E-02   8.786581E-02   3.316028E-01   4.815859E-02   5.001638E-01   2.104733E-01   5.271757E-01   1.027111E+00   4.169242E+00   8.443458E+00   4.874846E+00   5.435319E+00   3.188580E+00   7.527259E+00   2.163929E+01   8.059183E+00   1.123698E+01   2.825639E+00   1.639264E+00   1.099418E+01   5.031931E+00   1.863653E+00   4.841951E-01   1.081694E+00   8.528047E-01   3.637412E-01   2.107056E+00   2.091240E-01   3.603821E-02   4.334918E-01   1.190350E+00   4.310693E+00
   2.143954E-02   4.240598E-02   1.234574E-01   2.647969E-01   5.319695E-01   1.253382E+00   4.771226E-01   2.212794E-01   1.639028E-01   2.693995E-01   3.051664E-01   2.838925E-01   6.481446E-01   1.660078E+00   4.151590E+00   9.098535E-01   1.741790E-01   6.883372E-02   6.546517E-02   9.407121E-02   3.443176E-01   1.734717E-01   1.237267E+00   1.196961E+00   2.803055E+00   7.371715E+00   3.385199E+00   7.485318E-01   1.358874E+00   2.880374E+00   4.468847E-01   2.053803E+00   3.318050E+00   9.080850E-01   3.793531E+00   6.747157E+00   1.006965E+01   1.341326E+01   7.935963E+00   6.567142E+00   1.862372E+00   1.962414E+00   5.415291E-01   5.867597E-01   1.056213E+00   1.822145E-01   8.680279E-02   6.165549E-02   6.886539E-01   1.744861E+00
   1.445170E-02   1.411100E-02   9.107718E-02   2.926306E-01   2.787822E-01   5.977942E-01   6.190658E-01   2.038531E-01   5.821290E-02   2.446186E-01   5.270433E-01   1.457663E+00   7.394523E-01   2.629011E+00   6.980983E+00   7.210775E-01   1.538258E-01   2.912150E-01   3.265226E-01   3.817271E-01   1.507512E+00   1.462731E+00   5.635195E+00   5.584182E+00   5.726414E+00   2.846242E+00   3.356175E+00   9.686864E-01   1.288506E+00   1.697174E+00   3.695882E+00   3.417686E+00   2.296385E-01   7.731953E-01   8.624367E-01   2.567516E+00   5.314945E+00   5.211233E+00   1.454776E+01   4.441922E+00   7.975610E+00   1.148391E+01   6.016627E+00   1.231731E+00   1.601533E+00   1.380889E+00   9.972480E-02   6.689215E-01   4.833311E-01   4.582179E+00
   2.230398E-02   3.950119E-02   3.497361E-02   6.680332E-02   5.467367E-01   1.168848E+00   9.434957E-01   1.381575E-01   7.290927E-02   1.908603E-01   1.879057E+00   3.155847E+00   4.600006E-01   3.062711E-01   1.996819E+00   1.995947E-01   5.799590E-02   1.101919E-01   1.241548E+00   1.196550E+00   2.363194E+00   2.294799E+00   1.108789E+01   1.018830E+01   4.759962E+00   9.110187E+00   2.132091E+00   1.169046E+00   8.260792E-01   4.405170E+00   3.668249E+00   6.982692E-01   8.760287E-01   1.242401E+00   5.708931E+00   1.265006E+01   1.551387E+01   1.964057E+01   6.277815E+00   3.247928E+00   2.062699E+01   2.976602E+01   4.963857E+01   2.285866E+00   9.488164E-01   1.825213E+00   1.728828E+00   3.633491E-01   2.512630E+00   1.246981E+01
   1.676771E-02   5.474690E-02   2.569263E-02   2.895124E-02   1.306468E-01   2.078993E-01   1.204026E+00   6.575819E-01   1.255210E-01   2.469592E-01   2.662743E-01   6.271135E-01   1.784745E-01   9.105437E-02   2.990428E-01   4.099090E-01   2.333526E-01   3.280036E-01   3.852434E-01   8.394980E-01   2.297546E+00   2.512719E+00   2.625420E+00   1.801852E+00   9.733401E+00   4.054585E+00   5.099082E-01   1.715172E-01   5.375838E-01   2.493415E+00   2.218367E+00   7.589855E-01   7.088232E-01   3.795527E+00   6.293624E+00   4.966712E+00   6.017274E+00   7.709390E+00   9.452318E+00   3.153618E+00   7.796117E+00   2.632887E+00   5.334297E+00   8.566018E-01   3.182256E+00   6.504160E-01   4.791032E-01   1.202115E+00   1.506815E+00   2.367662E+00
   2.749881E-02   1.336822E-01   2.875230E-02   5.005516E-02   8.232015E-02   1.963802E-01   3.410062E-01   2.092358E-01   4.064175E-02   2.960669E-02   7.090516E-02   1.172767E-01   1.614056E-01   7.041665E-02   1.172582E-01   3.140050E-01   1.982825E-01   8.019017E-02   1.568571E-01   4.258220E-01   5.490932E-01   9.267789E-01   9.730080E-01   5.343350E+00   4.839550E+00   1.786235E+00   3.991265E-01   2.825460E-01   7.076730E-01   6.695357E-01   6.703272E-01   2.341271E-01   5.307091E-01   3.677341E+00   1.513452E+01   5.443977E+00   5.315072E+00   3.449414E+00   8.216360E+00   2.277837E+00   1.555570E+00   7.653900E-01   1.794704E-01   1.984387E-01   9.442482E-01   9.148197E-01   1.704319E+00   4.553950E-01   1.873668E-01   5.443237E-01
   7.539029E-02   3.299894E-01   1.532350E-01   9.942021E-02   4.583870E-01   3.613154E-01   8.078220E-02   9.388445E-02   1.495636E-01   5.681474E-02   2.198445E-01   1.123501E-01   8.022013E-02   2.096837E-01   9.202547E-02   2.919553E-02   2.126395E-01   3.097467E-01   3.674032E-01   4.686214E-01   4.969055E-01   6.714115E-01   7.672703E-01   1.386360E+00   1.948416E+00   1.995616E+00   4.538596E-01   2.889358E-01   4.769683E-01   3.772536E-01   3.931041E-01   8.497901E-02   2.473180E-01   4.476909E-01   1.864669E+00   5.658825E+00   4.898107E+00   7.493871E-01   5.831931E-01   3.566189E+00   2.428224E+00   1.492296E+00   5.283080E-01   1.790161E-01   6.871073E-01   3.333021E-01   3.320856E-01   2.796671E-01   5.140193E-01   3.337933E-01
   5.649650E-01   7.191685E-01   1.228429E+00   2.064788E+00   3.440347E-01   1.491813E-01   1.789638E-02   3.969666E-02   5.617708E-02   7.796914E-02   6.856576E-02   1.608684E-01   2.656458E-02   1.592934E-02   1.586842E-02   1.436149E-02   1.014437E-01   1.522021E-01   2.184765E-01   2.350736E-01   7.374435E-01   6.981028E-01   6.355861E-01   5.692136E-01   9.496338E-01   9.309402E-01   8.566827E-01   1.228630E+00   1.613728E+00   3.399476E-01   3.044809E-01   2.311531E-01   2.872148E-01   1.856460E+00   1.369094E+00   9.928448E+00   4.612532E+00   8.873475E-01   8.022744E-01   1.476259E+00   2.311298E+00   5.488597E-01   8.107896E-01   2.808264E-01   7.038967E-02   8.493262E-02   7.765667E-02   1.076332E-01   5.808889E-01   5.521620E-01
   7.340664E-02   6.158475E-01   7.953662E+00   1.248758E+01   8.710175E-01   4.829877E-02   3.717051E-02   8.804226E-03   2.264216E-02   7.049591E-02   5.323288E-02   3.058900E-01   1.852089E-01   2.905531E-02   6.290477E-03   1.597114E-02   1.041124E-01   1.022434E-01   1.899605E-01   1.414832E-01   1.131848E+00   8.419406E-01   7.505635E-01   7.319912E-02   3.994473E-01   5.826711E-01   7.729862E-01   2.087955E+00   5.966659E-01   9.411686E-01   5.908742E-01   2.823781E-02   2.049014E-01   1.959559E-01   7.900313E-01   6.125237E+00   2.670168E-01   4.963431E-01   2.943186E-01   5.455573E-01   9.575178E-02   8.805411E-02   4.187853E-01   8.889452E-02   3.682512E-02   1.806027E-02   1.462758E-02   3.168692E-02   7.571101E-02   4.769934E-01
   1.324688E-01   2.860865E-01   5.181173E-01   1.535405E+00   1.607674E+00   5.995486E-02   2.569620E-02   5.204061E-03   3.151269E-02   3.838230E-02   1.092675E-01   6.474273E-02   1.968937E-02   1.644399E-02   1.479062E-02   3.020180E-02   3.968833E-02   1.148197E-01   2.109700E-01   1.362486E+00   1.096483E+00   2.212078E+00   1.849702E+00   6.427868E-01   7.866752E-01   3.718541E-01   7.103497E-01   3.233736E+00   1.588874E+00   7.030469E-01   2.834058E-01   3.803106E-02   4.279571E-02   1.028598E-01   3.163374E-01   2.178191E+00   1.256715E-01   1.171756E-01   7.270188E-02   1.187224E-01   4.063053E-02   9.855791E-03   1.110944E-02   5.051392E-02   2.191196E-02   4.197827E-02   6.523001E-02   9.427226E-03   2.259730E-02   4.065737E-02
   2.957279E-01   6.224500E-01   7.808653E-01   3.472311E+00   3.257951E-01   3.791472E-01   3.149548E-02   9.464778E-03   3.015480E-02   1.086235E-02   1.364308E-02   3.175873E-02   4.537239E-02   2.715266E-02   6.552979E-02   1.137977E-01   5.764041E-01   1.504851E-01   9.947802E-02   1.916947E+00   5.125319E-01   1.159861E+00   1.033881E+00   8.285192E-01   7.080333E-01   8.535528E-01   1.524558E-01   8.431154E-01   1.023211E+00   6.758223E-01   1.844620E-01   4.406997E-02   1.172744E-01   1.913599E-01   4.840528E-01   8.432201E-02   6.958308E-02   7.700983E-02   1.143870E-01   6.035495E-02   2.554741E-02   3.534349E-02   1.943291E-02   1.252918E-02   4.644724E-02   2.795889E-02   4.662776E-02   4.183376E-02   4.939845E-02   3.360507E-02
   3.863642E+00   6.280607E+00   4.610640E+00   1.847017E+00   1.088298E+00   1.452566E-01   7.246646E-02   6.249438E-02   3.751694E-02   3.655425E-02   1.190980E-02   3.809720E-02   9.106295E-02   1.718650E-01   1.209474E-01   3.008092E-02   7.591095E-02   4.285670E-01   6.237342E-02   3.576594E-01   2.439609E-01   2.400566E-01   8.381458E-01   7.618731E-01   4.366165E-01   2.713742E-01   1.967178E-01   4.915679E-01   1.283698E+00   2.867274E-01   1.262495E-01   4.230252E-02   6.926549E-02   5.618175E-02   2.809339E-01   1.119322E-01   7.096414E-02   8.416940E-02   6.857195E-02   8.939677E-02   2.353062E-03   1.943710E-03   1.184087E-03   1.268157E-03   7.694730E-03   1.383350E-02   4.715142E-02   8.030564E-02   1.932662E-01   2.803970E-02
   3.756412E+00   6.396169E+00   5.061840E+00   3.245169E+00   3.952565E-01   1.950171E-01   7.233326E-02   8.055984E-02   5.242421E-02   1.011788E-01   4.046670E-02   1.675181E-02   1.158678E-01   1.176195E-01   2.206502E-01   4.314752E-02   1.063900E-01   5.096003E-01   4.529860E-01   6.535269E-01   9.825575E-02   1.749859E-01   4.339347E-01   2.295119E-01   8.449114E-02   1.407950E-01   3.618293E-01   3.399616E-01   7.713407E-01   1.046491E-01   8.849634E-02   5.373459E-01   1.166484E-01   8.089120E-02   7.519846E-02   1.153913E-01   3.357934E-01   1.527994E-01   5.396303E-02   1.112241E-02   3.267912E-03   6.549382E-04   6.433268E-04   1.362351E-03   3.108260E-03   1.020746E-02   1.258055E-02   6.977753E-02   2.892600E-02   5.123589E-02
   5.619523E+00   5.601295E+00   3.660412E+00   1.791528E+00   1.450125E-01   1.889763E-01   4.747323E-02   3.419038E-02   1.454255E-01   1.780311E-01   7.323902E-02   5.361009E-02   5.027337E-01   1.237643E-01   6.443245E-02   2.737969E-02   1.243925E-01   3.702048E-01   7.612730E-01   5.151862E-01   1.329462E-01   9.582655E-02   7.139944E-01   3.424634E-01   7.189748E-02   1.181720E-01   1.372388E-01   1.471476E-01   2.263325E-01   2.605405E-01   3.088834E-02   1.228223E-01   1.456738E-01   2.541158E-01   4.497987E-02   2.260111E-01   2.338647E-01   4.082226E-01   7.369952E-03   5.617776E-03   2.312427E-03   4.505929E-04   9.962704E-04   9.211923E-03   2.610514E-02   1.706610E-02   4.033972E-02   1.691393E-02   1.806481E-02   4.101083E-02
   4.663002E+00   1.037787E+01   2.141715E+00   7.132419E-01   2.724611E-01   4.591077E-01   2.886993E-02   8.922659E-03   6.019432E-02   1.526292E-01   7.755002E-02   1.212952E-01   3.722454E-01   9.312383E-02   7.611053E-01   8.203707E-02   1.278807E-01   3.906058E-01   3.535331E-01   2.965884E-01   2.619657E-01   2.019965E-01   6.585434E-01   1.724506E-01   2.016418E-01   8.124529E-02   1.239483E-01   2.494731E-02   2.825183E-02   2.035497E-01   1.354427E-01   5.005705E-01   3.113490E-01   1.550957E-01   3.891475E-01   4.527511E-01   2.571505E-01   1.399486E-01   9.812976E-03   2.239428E-03   4.567386E-04   4.936804E-04   2.450820E-03   6.300382E-02   5.303353E-02   1.583166E-02   2.596716E-02   7.387289E-02   3.359881E-02   9.768308E-02
   7.033000E-01   1.030357E+00   1.085357E+00   8.345808E-01   3.010962E-01   9.196550E-02   6.360549E-02   5.395150E-02   7.464428E-02   3.176005E-02   1.656592E-01   9.882390E-02   1.699984E-01   6.903024E-01   1.390782E+00   3.879022E-01   1.533658E-01   4.476863E-01   1.055347E+00   1.622124E+00   9.172915E-01   4.079102E-01   2.134650E+00   7.194247E-01   4.161534E-01   9.235813E-02   1.195063E-01   1.232891E-02   8.089348E-02   6.671049E-02   5.949945E-01   5.906822E-01   8.607802E-01   5.091726E-02   4.508326E-02   9.972035E-02   1.005783E-01   3.544363E-02   1.614696E-02   3.126189E-03   6.707361E-04   6.362507E-04   2.497351E-03   1.526791E-02   5.934361E-03   2.890741E-03   3.269301E-03   8.297674E-03   7.625893E-03   9.812206E-02
   5.017385E-01   1.092379E+00   1.309517E+00   1.441308E+00   7.302948E-01   2.141978E-01   1.037798E-01   1.092976E-01   1.185042E-01   1.982803E-01   5.685470E-01   4.065847E-01   5.625739E-01   6.164268E-01   2.242364E-01   7.992788E-01   1.576634E+00   5.808882E-01   1.569466E+00   2.585588E+00   1.351257E+00   1.614380E+00   2.975422E+00   7.778295E-01   8.749156E-02   2.602229E-02   5.943299E-02   1.067322E-01   9.788872E-02   6.438375E-02   1.014909E-01   1.436138E-01   9.955013E-02   1.560414E-01   1.137570E-01   1.849543E-01   1.032176E-01   9.047395E-02   4.206182E-02   1.546047E-02   1.838143E-03   1.315521E-03   6.207754E-03   5.950406E-03   2.154803E-02   1.369102E-02   7.465802E-03   3.896223E-02   1.585799E-02   2.190572E-01
   8.592110E-01   9.811502E-01   8.037448E-01   5.407428E+00   1.660692E+00   9.486763E-01   9.329733E-01   3.703251E-01   9.823290E-01   2.519351E+00   5.726212E-01   1.632934E+00   4.824052E-01   2.058067E-01   1.632264E+00   2.963563E+00   1.864815E+00   1.201079E+00   4.666133E-01   1.744591E+00   1.112112E+00   3.355829E+00   2.693023E+00   7.972950E-01   6.020037E-02   5.121770E-02   1.594828E-02   6.774320E-02   1.278308E-01   5.304898E-02   3.366537E-01   4.984474E-01   1.756895E-01   3.485264E-01   2.167267E-01   4.006245E-02   2.495703E-01   3.109086E-02   2.877727E-02   6.311769E-03   4.176059E-03   2.091029E-03   5.338884E-03   2.744679E-02   7.611357E-02   4.371879E-02   4.311487E-02   4.731315E-02   5.934942E-02   1.637091E-01
   1.007352E+00   4.664489E-01   1.461626E+00   2.989709E+00   2.817494E+00   4.503558E+00   4.250302E+00   2.533560E+00   1.877792E+00   1.572790E+00   2.906097E+00   1.188190E+00   3.917068E-01   7.197382E-01   9.002016E+00   1.256908E+00   1.474176E+00   9.209868E-01   2.055791E-01   1.218685E-01   3.090727E-01   2.471382E-01   2.149931E+00   5.490904E-01   3.704912E-02   3.145933E-02   2.630308E-02   1.963763E-02   2.421762E-02   9.066490E-02   3.690403E-01   1.443528E-01   4.298540E-01   5.182973E-01   1.735707E-01   1.602581E-01   8.634072E-02   2.616295E-02   1.701540E-02   3.671280E-03   1.213912E-02   1.917885E-02   5.199916E-02   1.007939E-02   6.214603E-02   6.527387E-02   9.674011E-02   1.500444E-01   9.025477E-02   4.976151E-02
   2.627354E+00   3.131914E+00   2.196777E+00   8.483891E-01   2.970266E+00   3.148280E+01   3.084454E+01   5.649003E+00   1.112296E+00   1.245316E+00   6.999987E+00   3.248161E+00   1.004121E+00   8.303825E-01   1.524001E+00   4.906032E+00   3.568412E+00   3.279460E-01   1.898660E-01   3.409878E-01   3.870015E-01   3.601023E-01   2.929545E-01   2.751455E-01   4.385086E-02   1.511980E-02   1.269202E-02   3.789371E-02   4.599030E-02   1.034771E-01   6.059005E-02   7.644808E-02   3.673460E-01   7.388674E-02   5.058320E-02   3.485853E-02   1.018886E-01   7.318572E-02   5.087486E-02   3.700556E-02   3.906184E-02   5.771570E-02   3.820439E-02   2.957620E-03   1.736115E-02   1.848068E-02   2.701324E-01   6.467146E-02   7.698953E-02   2.010276E-01
   8.346310E-01   1.217818E+00   1.361724E+00   1.159589E+00   1.357441E+00   2.525011E+01   5.221931E+01   2.467445E+01   2.998914E+00   1.163369E+01   5.529642E+00   6.246884E+00   1.158492E+00   2.525129E-01   2.388539E+00   1.551627E+01   9.008530E+00   1.192477E+00   1.901461E-01   4.618265E-01   4.694321E-01   1.423841E-01   8.195926E-02   8.700393E-02   5.913210E-02   4.940819E-03   3.229055E-03   6.413881E-03   2.169570E-02   7.154712E-02   3.513383E-02   1.120817E-01   3.230749E-02   7.353544E-01   6.357486E-02   1.405662E-02   1.051093E-01   1.929324E-01   1.206456E-01   9.316829E-02   1.030680E-01   3.611057E-02   3.973724E-02   3.155351E-03   9.576715E-03   2.717512E-02   4.802942E-02   6.571250E-02   2.780600E-01   2.215612E-01
   4.912668E-01   1.236871E+00   4.566181E+00   1.095263E+01   3.067060E+00   4.402085E+01   8.100492E+01   5.354340E+01   2.135871E+01   3.778027E+01   2.232044E+01   3.734336E+00   4.961180E+00   8.833236E-01   9.054800E-01   4.549400E+00   5.832473E+00   1.139811E+00   6.432081E-01   3.454407E-01   1.321209E-01   7.017022E-02   4.031932E-02   5.933676E-01   8.628399E-02   1.468598E-02   2.067832E-02   4.948372E-03   5.475973E-02   4.486588E-02   3.262805E-01   7.933480E-02   3.223966E-02   7.740835E-02   5.545771E-02   2.615513E-02   9.516326E-02   1.519714E-01   2.011064E-01   2.428927E-01   4.417381E-02   9.433975E-02   2.435703E-02   6.343190E-03   1.024512E-02   1.447614E-02   9.695394E-02   1.826506E-01   1.528728E-01   2.390008E-01