# UPW package for  MODFLOW-NWT, generated by Flopy.
        55    -1E+30         0         0 
         1
         0
   1.000000E+00
         0
         0
INTERNAL               1  (50E15.6) -1 #hk layer 1                    
   1.043359E+00   1.844587E+00   1.097916E+00   1.675074E-01   9.280280E-02   4.360145E-01   1.043148E-01   3.980795E-01   1.434884E+00   4.064359E-01   3.166758E-01   1.811856E-01   1.494159E-01   9.562412E-02   3.198402E-01   3.620932E-01   8.872139E-01   4.069467E-01   3.634956E-01   2.051298E-01   1.103236E-01   5.470306E-02   4.538408E-02   3.525522E-02   4.824242E-02   6.704371E-02   1.683338E-01   5.474084E-02   5.629699E-02   1.213657E-01   3.495935E-02   2.078971E-01   5.285544E-01   3.517960E-01   3.330114E-01   2.527078E+00   6.319560E+00   5.037038E+00   6.198018E+00   1.716699E+01   1.442678E+01   8.056289E+00   5.239145E+01   9.218463E+01   6.484762E+01   2.275393E+02   7.794783E+00   1.881283E+01   6.573397E+00   3.126098E+00
   3.670101E+00   2.159865E+00   1.547751E-01   2.790122E-01   1.810207E-01   8.527800E-02   4.477533E-01   8.986806E-01   2.679729E+00   7.793802E-01   8.598582E-01   2.646681E-01   4.640308E-01   3.756846E-02   4.978679E-02   7.124871E-02   4.763482E-01   4.553159E-01   2.314296E-01   3.399536E-01   3.026793E-01   1.025833E-01   1.328731E-01   7.435345E-02   3.913209E-02   2.646391E-02   2.758738E-01   1.601554E-01   1.699648E-01   1.061535E-01   5.269344E-02   4.300032E-02   1.013944E-01   1.826490E-01   8.935309E-02   5.068514E-01   9.941190E-01   2.349959E+00   9.005757E+00   3.716254E+00   2.029895E+00   1.393085E+01   1.288790E+01   2.051821E+01   1.371332E+02   6.051180E+01   1.154280E+02   1.320659E+01   6.278838E+01   2.502368E+01
   1.573174E+00   4.621889E-01   2.011625E-01   1.090789E-01   2.172734E-01   1.734262E-01   1.455299E-01   1.234540E+00   1.193503E+00   1.180540E+00   1.678092E+00   1.372697E+00   6.878739E-01   1.263559E-01   8.325951E-01   2.124555E-01   6.730923E-01   5.263809E-01   1.157967E-01   1.619956E-01   5.750040E-01   2.802825E-01   4.962886E-01   1.323106E-01   6.340751E-02   3.275740E-01   1.177561E-01   3.728679E-01   1.187427E-01   1.943405E-01   7.843917E-02   8.368005E-02   9.599065E-02   2.972797E-01   1.037431E-01   1.580439E-01   2.408545E-01   9.850366E-01   2.213063E+00   5.205242E+00   5.755123E+00   9.288893E-01   4.035021E+00   1.167155E+01   1.471614E+02   1.438182E+02   2.911023E+01   5.695724E+01   5.815252E+01   3.336433E+01
   5.144091E+00   7.298893E-01   2.933612E-01   5.642853E-02   5.233573E-01   8.940793E-01   1.356771E+00   1.985939E+01   2.113760E+00   1.151899E+00   1.159382E+00   1.489055E+00   1.940445E-01   5.040851E-01   1.058640E+00   8.626809E-01   4.749693E-01   5.408379E-01   2.024324E-01   2.483655E-01   4.505904E-01   1.942006E-01   1.649830E-01   2.104587E-01   1.022018E-01   2.560167E-01   1.178719E-01   6.128048E-02   1.549845E-01   2.582667E-01   3.221231E-01   3.867727E-01   3.259821E-01   4.133856E-01   1.184546E-01   3.453168E-01   1.796378E-01   2.646932E-01   7.419986E-01   1.237678E+00   2.813953E+00   1.646608E+00   2.058218E+00   1.671233E+01   6.403124E+01   2.016592E+01   6.060906E+00   1.464926E+01   1.609493E+01   2.346454E+00
   1.047649E+00   1.997827E-01   3.477108E-01   5.103457E-01   6.855121E-01   1.350732E+00   1.698595E+00   1.268311E+01   8.401384E+00   3.831359E+00   2.211249E+00   9.732556E-01   5.840926E-01   9.619672E-01   2.952110E+00   5.010263E-01   9.603276E-01   9.575437E-01   7.474627E-01   1.369616E-01   8.240012E-01   4.608690E-01   1.565976E+00   7.260477E-01   7.817450E-02   5.506342E-01   2.064678E-01   2.265282E-01   7.470887E-01   2.567612E-01   3.111601E-01   2.809981E+00   2.492067E-01   2.562108E-01   1.760464E-01   4.378333E-01   7.926548E-01   1.234964E+00   3.746162E-01   3.672783E-01   2.087153E+00   3.781495E+00   5.591879E-01   2.594141E+00   5.084657E+00   3.017064E+01   8.696629E+00   5.907415E+00   8.989419E+00   6.583320E-01
   4.274869E+00   6.651556E-01   9.333766E-01   8.799011E-01   9.039155E-01   1.238390E+00   1.461606E+00   3.213899E+00   1.241007E+01   2.245983E+00   2.821163E+00   2.204691E+00   3.032847E+00   1.379113E+00   5.356225E-01   1.059941E+00   2.131346E+00   1.403143E+00   3.009435E-01   3.245516E-01   1.178757E+00   1.309153E+00   2.130457E+00   4.000819E-01   3.753057E-01   9.141359E-01   2.200305E+00   1.275481E+00   6.662751E-01   3.504644E-01   7.954810E-01   1.010324E+00   9.939606E-01   3.213131E-01   1.401421E-01   2.733558E-01   1.637883E+00   7.437671E-01   3.776436E+00   3.140377E+00   4.241524E+00   2.643190E+00   9.367360E-01   5.385844E-01   2.385738E+00   2.302182E+00   1.455197E+00   1.329499E+00   3.380616E+00   1.140961E+00
   1.382210E+00   2.043236E-01   1.019148E+00   9.050159E-01   2.123198E+00   7.761107E-01   4.851918E-01   7.765614E-01   8.869988E-01   9.560128E+00   1.003808E+00   5.858418E-01   1.836238E+00   4.583743E+00   2.683119E+00   6.074061E-01   4.273438E+00   1.273706E+00   5.214871E-01   1.447598E+00   5.739563E+00   4.062055E+00   1.350089E+00   3.757312E+00   1.255594E+00   5.250654E+00   1.643646E+00   8.333717E-01   5.176673E+00   2.099576E+00   1.035130E+00   1.545484E+00   1.196625E+00   4.512665E-01   3.573889E-01   3.925289E-01   1.688102E+00   3.113335E+00   1.950671E+00   3.209926E+00   3.859173E+00   2.723354E+00   1.480670E+00   6.034158E-01   5.088934E-01   1.932703E+00   4.309759E-01   5.744188E-01   2.627426E+00   3.453478E+00
   1.605787E+01   4.949150E+00   2.378397E+00   3.287566E-01   2.099982E-01   8.500450E-01   9.322453E-01   2.242286E+00   5.788702E+00   1.088257E+00   1.576774E+00   3.441326E-01   2.975420E-01   1.342113E+00   2.594975E+00   5.482803E+00   2.084571E+00   1.040727E+00   4.784811E+00   6.068959E+00   2.461861E+01   1.128081E+01   1.071854E+00   5.532430E+00   1.119167E+01   1.493503E+01   4.936268E+00   2.214217E+00   3.707574E+00   8.994186E+00   8.788057E-01   9.833316E-01   3.032069E+00   9.098607E-01   1.014508E+00   3.648168E-01   9.967613E-01   1.276299E+00   3.191649E+00   8.261229E+00   2.254136E+00   2.771353E+00   2.825824E+00   1.496617E+00   5.340210E-01   1.400781E+00   6.285205E+00   6.598067E+00   1.206724E+01   2.847243E+00
   3.392530E+01   3.742864E+00   5.608895E+00   6.232369E-01   4.197301E-01   3.668725E-01   3.098924E-01   1.560624E+00   1.274446E+00   9.382873E-01   6.290917E-01   3.768250E-01   2.676417E-01   2.232999E+00   1.620425E+00   4.190989E+00   3.794585E+00   2.575894E+00   3.523491E+00   1.701702E+00   6.265131E+00   4.954899E+00   5.066729E+00   2.207572E+01   9.467017E+00   9.237507E+00   3.549329E+01   1.875182E+00   3.224815E+00   4.221756E+00   5.091190E-01   3.866326E+00   2.448302E+00   8.245181E-01   8.888717E-01   1.650282E+00   9.808110E-01   1.121310E+00   6.284669E+00   1.756078E+01   5.131078E+00   3.819926E+00   1.740268E+00   9.731987E-01   8.761141E-01   2.293252E+00   3.840625E+00   2.752416E+00   1.526713E+00   8.455917E-01
   2.431157E+01   1.007045E+01   1.719373E+01   2.548917E+00   3.347367E+00   4.003389E-01   1.999110E-01   6.237568E-01   2.964518E-01   6.563867E-01   4.117187E-01   1.959439E+00   1.837461E+00   4.034585E+00   4.063451E+00   1.882504E+00   1.198766E+00   2.202760E+01   1.514920E+01   8.343395E+00   3.210317E+00   9.455110E-01   9.002584E+00   1.179029E+01   4.079644E+00   2.579419E+00   1.675019E+00   8.979803E-01   6.230642E+00   3.669275E+00   2.179503E+00   6.312858E+00   1.155962E+01   2.601329E+00   3.926751E+00   4.893731E+00   7.623275E+00   1.037806E+01   6.914463E+00   1.056216E+01   3.795223E+00   5.561774E+00   5.399190E-01   6.327385E-01   4.038918E-01   2.640267E-01   1.047344E+00   7.852250E-01   3.178671E-01   6.575837E-01
   2.888145E+01   6.179963E+01   2.105054E+01   3.129879E+00   1.507086E+00   9.089725E-01   7.450064E-01   1.982888E-01   3.369225E-01   2.751164E-01   1.357416E+00   8.125966E-01   5.102520E-01   1.959007E+00   8.536486E+00   4.286461E+00   3.989322E+00   5.764113E+00   7.667720E+00   4.508604E+01   3.087820E+00   4.150523E+00   1.484205E+01   1.046827E+01   8.302982E+00   4.809511E+00   1.330006E+00   4.550987E+00   1.282553E+01   2.655217E+00   1.276691E+00   1.565789E+00   1.547988E+00   2.151148E+00   4.204454E+00   3.486562E+00   5.671708E+00   1.213954E+01   7.314759E+00   1.446537E+01   2.583989E+01   2.715111E+00   4.292345E-01   5.292776E-01   1.124206E+00   9.019706E-02   6.557907E-02   1.211831E-01   3.868827E-01   2.228781E-01
   2.685611E+01   2.551493E+01   4.471584E+00   1.489639E+00   5.090944E-01   8.366085E-01   5.098775E-01   1.034801E-01   1.866950E-01   4.851567E-01   2.538149E-01   2.590875E-01   2.861658E-01   1.027776E+00   2.559058E+00   9.705340E+00   1.513386E+00   4.963253E+00   3.651880E+00   8.415532E+00   4.176321E+00   1.413832E+01   8.156462E+00   1.036817E+01   4.359518E+00   1.618209E+00   7.212017E-01   1.502662E+01   4.692113E+01   1.584703E+01   2.069156E+00   5.705020E-01   3.197556E-01   1.146888E+00   5.847911E-01   1.005458E+00   1.509102E+01   1.218149E+01   4.687781E+00   1.113611E+01   2.327338E+00   1.871936E+00   1.141975E+00   1.041497E+00   7.230424E-01   3.698017E-01   2.058089E-01   3.769199E-01   4.835751E-01   1.504917E-01
   4.303717E+01   2.549290E+01   1.707920E+01   1.945975E+00   6.236090E-01   1.928859E+00   4.241661E-01   1.572969E-01   1.057093E-01   3.916311E-01   1.248190E+00   1.065364E+00   6.142492E-01   1.176602E+00   1.197151E+00   4.711223E+00   7.309691E+00   2.443012E+00   2.618376E+00   2.004043E+00   2.699713E+01   4.967519E+01   5.503652E+01   1.124756E+01   4.490024E+00   2.305420E+01   2.651439E+00   1.758295E+01   1.915882E+01   2.810449E+00   7.099769E-01   2.986488E-01   3.334998E-01   7.923047E-01   4.403916E-01   6.228405E+00   5.289910E+00   2.917150E+00   9.830957E+00   2.844791E+00   2.207634E+00   8.330520E-01   1.269826E+00   7.615678E-01   2.284874E+00   2.473778E+00   4.300434E-01   2.897565E-01   1.083075E+00   9.939252E-02
   4.994624E+01   1.335538E+01   1.088982E+00   5.730662E-01   4.990259E-01   1.267511E+00   6.409199E-01   1.513709E-01   6.622002E-01   8.415896E-01   3.090415E-01   4.630317E-01   4.228269E-01   4.043290E-01   1.214277E+00   5.880107E-01   5.251150E+00   1.706854E+01   4.448483E+00   1.133904E+01   1.890993E+01   7.189874E+01   5.849986E+01   9.617657E+00   2.407300E+01   1.193693E+01   7.165691E+00   2.772517E+01   7.794169E+00   5.384768E+00   9.203230E-01   1.199995E+00   1.962769E+00   1.306879E+00   4.456237E+00   9.878392E+00   1.977842E+00   1.038593E+00   4.946829E-01   9.695216E-01   7.662574E-01   1.826846E+00   8.168240E-01   8.096576E-01   5.233837E+00   1.559961E+00   2.794256E-01   6.267396E-01   8.796428E-01   2.591546E-01
   1.877402E+00   3.781853E+00   1.377956E+00   3.897582E-01   3.597965E-01   2.216880E-01   6.629506E-01   3.331560E-01   2.451742E+00   1.982799E+00   1.783424E-01   6.143826E-01   1.691817E+00   8.746926E-01   5.752651E-01   4.305784E-01   6.269642E-01   6.496234E+00   4.260043E+00   1.095668E+01   2.245300E+01   9.580405E+01   4.796414E+01   4.776184E+01   2.272632E+02   1.943754E+02   1.463837E+01   2.588832E+01   1.084845E+01   1.393544E+01   1.443600E+01   3.388938E+00   1.478142E+01   5.164031E+00   5.835026E+00   4.883926E+00   1.994979E+00   1.128470E+00   3.489497E-01   7.311850E-01   9.237837E-01   1.248971E+00   2.297070E+00   1.268222E+01   4.075343E+00   5.593797E+00   1.098962E+00   4.428050E-01   1.469607E+00   4.906327E-01
   2.517853E+00   2.860068E+00   7.579153E-01   1.569265E+00   2.048430E-01   1.721201E-01   5.743499E-01   3.708670E-01   7.330661E-01   4.873700E-01   1.244005E-01   9.987955E-02   6.748945E-01   6.291391E-01   4.457708E-01   4.214205E-01   6.180472E-01   9.741325E-01   1.833579E+00   1.162020E+01   5.671778E+01   4.630978E+01   2.385763E+02   1.856260E+02   3.560435E+02   6.172703E+01   9.204867E+01   6.312995E+01   4.550963E+01   1.679162E+01   2.389899E+01   1.664822E+01   3.528452E+01   1.452494E+01   3.084660E+00   2.576029E+00   3.115100E+00   2.021910E+00   5.115043E+00   4.851944E-01   6.474451E-01   1.168438E+00   2.478675E+00   1.236432E+01   1.101083E+01   7.372320E+00   1.457352E+00   1.599191E+00   7.955965E-01   3.171506E-01
   9.295880E-01   2.851354E+00   3.195356E+00   2.353442E+00   1.065065E+00   2.343238E-01   2.511232E+00   1.599165E+00   1.111901E+00   4.242598E-01   2.601277E-01   3.059709E-01   3.984875E-01   9.238362E-01   2.424902E-01   2.493138E-01   8.080751E-01   1.148588E+00   1.220955E+00   2.162685E+00   3.992694E+00   4.310631E+01   3.385886E+02   2.485391E+02   5.124499E+02   8.069774E+01   5.728196E+01   1.053612E+02   4.459467E+01   2.543852E+01   2.801842E+01   6.138064E+01   2.619686E+01   9.125233E+00   1.755865E+00   1.217026E+00   6.188493E+00   5.364897E+00   2.171784E+01   1.921554E+01   6.928773E+00   4.665979E+00   3.013086E+00   4.540015E+00   1.520051E+00   5.095188E-01   1.289481E+00   5.793562E+00   3.504882E+00   5.277362E-01
   5.853838E-01   5.492626E-01   1.422347E+00   1.675122E+00   1.127450E+00   9.515626E-01   1.493989E+00   4.852999E+00   3.878748E+00   2.718593E+00   2.102557E-01   2.491607E-01   3.518296E-01   1.993895E-01   4.815063E-01   4.433816E+00   2.009851E+00   1.947179E+00   1.081696E+00   3.598709E+00   4.741413E+00   3.064015E+01   1.461224E+02   1.369738E+02   1.227109E+02   5.158791E+01   3.613357E+01   9.043423E+00   1.799724E+01   1.038859E+01   6.994543E+00   2.139109E+01   2.662354E+01   1.049347E+00   1.875478E+00   8.591616E-01   2.631175E+00   2.054670E+01   4.441371E+01   6.115839E+01   1.744870E+01   1.648894E+00   1.630357E+00   1.756643E+00   6.215453E-01   1.920849E+00   1.494549E+00   2.216943E+00   6.569341E-01   5.192603E-01
   2.254420E-01   1.969848E-01   2.388552E-01   1.258303E-01   1.987363E-01   5.504652E-01   1.761217E+00   1.409472E+00   1.023747E+01   9.486029E-01   9.090429E-01   4.651983E-01   4.984070E-01   3.869429E-01   1.352414E+00   2.606398E+00   3.131846E+00   4.595690E+00   4.995754E-01   2.019126E+00   1.891761E+01   1.510646E+01   2.106617E+01   7.319984E+01   1.283821E+02   2.365493E+02   2.095403E+01   1.397388E+01   1.129179E+01   3.072776E+00   8.041091E+00   1.303005E+01   5.075889E+00   9.282222E-01   6.104513E-01   3.751725E+00   9.629849E+00   3.401790E+01   3.670020E+01   8.499159E+01   2.392815E+01   1.221304E+00   3.929250E+00   6.115820E+00   2.380246E+00   1.423723E+00   1.104320E+00   8.512668E-02   1.387348E-01   7.337672E-02
   9.273251E-02   1.072117E-01   9.068953E-02   2.730440E-02   1.067070E-01   1.722711E-01   1.630132E-01   3.564981E-01   7.603354E-01   5.735521E-01   8.214499E-01   2.052294E-01   4.698577E-01   4.942760E-01   2.312018E+00   4.890677E+00   4.392038E+00   2.639764E+00   2.456567E+00   8.369363E+00   1.985558E+01   1.403227E+01   3.633539E+01   6.057999E+01   1.332361E+02   1.722395E+01   1.092865E+01   9.492423E+00   2.003973E+00   5.852572E+00   3.864851E+00   2.578421E+00   3.263383E+00   1.055733E+00   2.026956E+00   1.050310E+01   8.430658E+00   3.829599E+01   1.216589E+01   3.493204E+01   7.110926E+00   1.151367E+00   1.440092E+00   4.839971E+00   1.378024E+00   1.523482E+00   1.447212E-01   1.051690E-01   8.956948E-02   4.848044E-02
   1.230738E-01   3.477974E-01   1.930615E-01   6.399005E-02   2.876793E-02   8.230942E-02   3.219657E-02   4.060022E-01   3.276491E-01   7.605872E-01   1.221948E+00   5.307675E-01   2.427239E+00   7.760522E-01   1.549762E+00   3.184587E+00   8.035298E+00   5.341543E+00   5.246957E+00   2.767579E+01   8.610841E+01   1.916215E+01   1.468495E+01   1.575169E+01   7.213256E+00   9.560809E+00   6.743013E+00   9.686896E+00   3.185490E+00   6.252887E+00   4.330240E+00   1.287044E+00   1.116458E+00   8.797294E-01   1.522366E+00   1.678211E+01   1.159746E+01   6.577776E+00   5.457682E+00   5.688667E+00   7.779831E-01   9.575402E-01   2.258568E+00   3.054916E+00   7.668591E-01   2.021196E+00   4.140444E-01   3.464979E-01   6.072919E-02   3.208887E-02
   2.674223E-01   1.653722E-01   2.600868E-01   6.235591E-02   1.920930E-02   3.568474E-03   3.395302E-02   1.173172E-01   4.349985E-01   1.136945E+00   9.472694E-01   1.116859E+00   2.879742E+00   6.392601E+00   9.039932E-01   1.002365E+01   4.533876E+00   1.215550E+01   7.397094E+00   3.664960E+01   1.749246E+02   9.919397E+00   1.410457E+01   1.194805E+01   4.041409E+00   3.637307E+00   7.033856E+00   2.613454E+00   2.398896E+00   1.947545E+00   1.274716E+00   3.984357E-01   6.206619E-01   5.337315E-01   7.294020E+00   1.037112E+01   7.539119E+00   2.167587E+01   2.974581E+00   4.198983E+00   3.543269E+00   1.435582E+00   6.621059E-01   4.524719E-01   6.192052E-01   1.111819E-01   7.073238E-02   4.859280E-01   1.883501E-01   3.902532E-01
   6.966066E-01   3.281356E-01   3.762225E-01   3.319621E-02   1.234647E-02   4.162091E-03   2.727565E-02   3.070514E-01   5.430335E-01   3.564787E-01   1.210662E+00   1.376615E+00   1.141470E+00   8.502553E-01   1.526872E+00   7.743993E+00   1.155181E+01   2.979346E+00   3.804874E+00   5.401928E+01   1.041030E+02   4.082876E+01   7.152958E+01   6.059974E+00   6.277502E+00   3.632936E+00   6.558780E+00   2.217602E+00   2.786430E+00   1.317556E+00   3.758094E-01   9.312598E-01   5.087339E-01   9.060088E-01   1.708581E+00   3.808669E+00   1.273765E+01   5.950311E+00   9.174969E-01   1.772440E+00   6.945837E-01   1.211426E+00   1.559288E+00   7.584134E-01   6.079963E-01   3.079632E-01   4.381728E-01   6.503865E-01   3.561562E-01   1.504542E+00
   1.683697E-01   9.212117E-01   1.922867E-01   4.096789E-02   9.064583E-03   4.320580E-03   5.821804E-03   9.027026E-02   1.483397E-01   3.370276E-01   2.892399E+00   5.179092E-01   1.981223E+00   2.296338E+00   3.748368E+00   8.299292E+00   2.160519E+00   3.621683E+00   4.261187E+01   3.809721E+01   1.555561E+02   1.755650E+02   4.555935E+01   1.377789E+01   2.368466E+01   6.129397E+00   1.853232E+01   4.145098E+01   1.117208E+01   1.293217E+00   2.916442E+00   7.938561E-01   2.378521E-01   3.769947E+00   6.228682E+00   3.281878E+00   1.993646E+00   1.274292E+00   3.815060E-01   1.224706E-01   1.579511E+00   1.193863E+00   1.057161E+00   8.686945E-01   2.327700E-01   2.862639E-01   1.308870E-01   4.811883E-01   1.125721E+00   1.613858E+00
   5.160459E-02   1.633069E-02   3.890131E-02   3.007836E-02   1.266970E-02   2.125761E-03   2.018451E-03   9.045603E-03   7.082155E-02   2.878193E-01   6.217365E-01   2.030454E+00   6.197615E+00   2.353079E+00   3.274661E+01   1.982585E+01   2.576218E+01   5.181690E+00   7.335567E+01   4.227336E+02   4.055121E+02   2.478689E+02   7.321205E+01   9.179529E+00   1.444774E+01   2.210340E+01   1.110673E+02   2.360995E+01   2.842656E+01   2.518135E+00   8.405029E+00   2.693371E+00   1.075572E+00   3.153558E+00   9.578084E-01   1.706457E+00   1.487919E+00   6.812060E-01   1.085491E-01   2.063104E-01   8.183197E-01   1.044667E+00   5.487033E-01   5.251036E-01   9.464303E-02   3.313376E-01   1.711776E-01   4.577158E-01   3.521249E-01   3.214969E+00
   6.667321E-03   8.099475E-03   9.906266E-03   4.535860E-02   5.209840E-03   2.037268E-03   2.992824E-03   1.270905E-02   9.061150E-02   7.296631E-01   1.602797E+00   1.236163E+00   3.137829E+00   4.601851E+00   2.003077E+00   3.483485E+00   5.913574E+00   3.568851E+01   8.692350E+01   6.037255E+01   4.009153E+02   1.158720E+02   4.818182E+01   1.640011E+01   1.167955E+01   5.266263E+01   2.838076E+01   9.462503E+00   1.156223E+01   9.797982E+00   8.982183E+00   6.882040E+00   2.224053E+00   4.088781E+00   2.836152E-01   5.568005E-01   6.406099E-01   2.661479E+00   3.627283E-01   4.958507E-01   7.670707E-01   7.060628E-01   2.715342E-01   1.937968E-01   9.182186E-02   1.534278E-01   8.313739E-02   1.083921E-01   2.641313E-01   1.253282E+00
   1.040256E-02   1.511739E-02   1.368328E-02   4.836288E-02   1.392747E-02   3.072870E-03   6.544573E-03   5.341205E-03   1.088691E-01   1.087705E+00   1.353911E+00   2.836658E+00   8.346440E+00   5.333481E+00   8.129990E+00   1.637814E+00   1.149501E+01   1.964648E+01   3.894351E+01   1.288571E+02   6.419971E+02   2.197168E+02   4.276489E+01   2.298690E+01   5.142858E+01   5.221230E+01   1.141356E+01   1.522564E+01   1.184931E+01   5.144443E+01   2.562849E+00   1.268592E+00   4.434901E-01   4.494767E-01   3.661301E-01   8.204231E-01   8.575325E-01   1.533723E+00   4.522760E+00   1.525182E+00   1.305514E-01   8.297347E-02   2.912050E-01   3.471286E-01   9.623910E-02   1.090863E-01   8.293669E-02   5.693227E-02   3.184137E-01   1.329055E+00
   4.186405E-02   1.079022E-01   2.642839E-02   3.163934E-02   1.765811E-02   2.230997E-02   4.542546E-02   1.007872E-02   6.025980E-02   4.024644E-01   6.361292E-01   3.480202E+00   8.642836E+00   6.189258E+00   1.595134E+00   1.358270E+00   4.490429E+00   2.096165E+01   2.309346E+01   2.092743E+02   2.207258E+02   3.301077E+02   1.482301E+02   9.683681E+01   3.595010E+02   1.273996E+02   2.991922E+01   1.485702E+02   2.610019E+01   1.209219E+01   4.147061E+00   7.847256E-01   1.495770E+00   2.981331E+00   3.695648E-01   1.303979E+00   3.690538E-01   1.710237E-01   1.204697E+00   1.271955E+00   3.342465E-01   7.770466E-01   1.602480E-01   2.717637E-01   2.333090E-02   5.998408E-02   5.101175E-02   1.839359E-01   4.837569E-01   3.858245E-01
   1.390236E-01   9.500437E-02   1.935535E-02   3.353226E-02   5.167305E-03   4.543024E-03   3.312070E-03   5.266497E-02   3.833490E-01   5.238641E-01   1.444430E+00   1.035564E+00   7.246187E+00   2.228029E+00   1.301539E+00   1.173390E+00   6.458662E+00   2.244466E+01   5.074086E+01   8.484246E+02   9.280225E+02   1.007127E+03   2.014277E+02   2.218331E+02   9.291483E+01   2.069200E+02   1.500917E+02   5.227262E+02   2.573374E+02   2.039028E+02   8.944459E+00   6.925167E+00   5.456910E+00   4.539093E+00   3.916748E-01   7.951265E-01   6.530690E-01   1.324853E+00   4.329446E-01   2.712510E-01   9.528547E-01   4.618241E-01   4.053849E-02   4.574613E-02   1.021437E-02   1.528912E-02   9.676392E-02   9.040146E-02   1.886035E-01   1.242897E-01
   1.676839E-02   1.618077E-02   1.318389E-02   4.725824E-03   2.984898E-03   3.945534E-03   8.681852E-03   8.744671E-02   3.943382E-01   5.268028E-02   9.794023E-02   1.943562E+00   3.259985E+00   2.099020E+00   1.947025E+00   5.006960E+00   9.086358E+00   9.610764E+01   1.162421E+02   1.307165E+03   3.496006E+02   6.024644E+02   4.491411E+02   3.821925E+02   6.947612E+01   6.427469E+01   2.196647E+02   3.371180E+02   3.070883E+02   4.494186E+02   3.751675E+02   2.842774E+01   2.936353E+01   4.557189E+00   2.500120E+00   3.052624E+00   1.532142E+00   5.049110E+00   4.319438E+00   5.262074E-01   1.819579E+00   5.899660E-01   1.112311E-01   7.620844E-02   6.750873E-02   6.847309E-02   2.993385E-02   1.320216E-01   2.211379E-01   1.072767E-01
   1.406185E-02   4.789852E-03   8.341960E-03   6.272983E-03   1.448733E-02   8.007919E-03   7.015983E-03   1.190496E-01   3.658117E-01   3.460810E-02   6.208194E-02   3.135675E-01   6.258678E-01   2.781835E+00   3.046763E+00   3.719653E+00   8.408684E+00   1.584755E+01   7.867053E+00   7.628014E+01   1.379320E+02   4.544366E+02   4.696773E+02   5.033843E+02   1.422836E+02   5.510669E+01   1.419543E+02   3.724548E+02   1.353102E+02   4.427899E+02   1.278934E+02   2.707056E+02   4.279826E+01   8.767228E+00   1.763554E+01   6.357442E+00   1.077592E+01   8.686611E+00   1.052563E+01   3.809623E+00   2.290582E+00   1.466471E+00   3.769718E-01   8.842715E-02   7.182295E-02   5.849338E-02   1.581872E-01   3.304524E-01   2.802114E-01   9.961651E-02
   6.474580E-03   1.455490E-02   5.385261E-03   1.833659E-02   2.717318E-02   4.746815E-02   2.337368E-02   2.652843E-02   2.727680E-02   1.713515E-02   2.504743E-02   9.828612E-02   3.288442E-01   7.945569E-01   5.034392E+00   6.150917E-01   6.722588E-01   1.598922E+00   1.319391E+01   1.187186E+02   7.003400E+01   8.503966E+01   1.283119E+02   3.420382E+02   1.351599E+02   1.231180E+02   1.358129E+02   3.297236E+02   3.912027E+02   7.750967E+02   8.078190E+02   7.152741E+01   9.233056E+01   7.960064E+01   4.294039E+00   2.541239E+00   7.626326E+00   3.232374E+00   5.398240E+00   3.575653E+00   1.769473E+00   1.592305E+00   3.102299E-01   1.266592E-01   2.729759E-02   1.072890E-01   1.229993E-01   3.649653E-01   1.483809E-01   4.448563E-02
   2.276838E-02   1.120910E-02   3.184552E-02   5.357460E-02   1.768740E-01   5.702534E-02   3.553569E-02   3.058395E-03   2.663669E-03   1.745038E-03   2.250591E-02   3.796732E-01   2.611296E-01   6.981041E-01   1.291257E+00   7.999884E-01   2.749181E+00   1.971158E+00   6.384027E+00   3.371296E+01   1.864104E+02   1.471187E+02   1.422307E+02   2.820483E+02   1.477090E+02   3.204726E+01   1.130124E+02   5.019595E+02   1.711173E+03   3.656771E+03   1.707033E+03   2.211378E+02   2.436724E+01   2.588681E+01   1.123546E+01   5.021029E+00   3.073647E+00   9.721437E+00   5.919507E+00   4.899265E+00   8.171618E+00   1.996798E+00   3.304484E-01   1.078105E-01   1.775157E-01   8.732526E-01   1.738574E+00   1.071935E+00   4.236041E-01   8.818668E-01
   7.097039E-02   1.177345E-01   1.599215E-01   1.573498E-01   2.388802E-01   7.432204E-02   1.890006E-02   1.199850E-02   5.236977E-03   1.060975E-02   7.176618E-02   1.419113E-01   1.735989E-01   6.468176E-01   2.480205E+00   1.498591E+00   2.207919E+00   3.174220E+00   1.345769E+00   6.993120E+00   5.079199E+01   6.822064E+01   1.132490E+02   2.546778E+02   7.830219E+01   3.900815E+02   7.130070E+02   1.478247E+02   2.293826E+02   4.352137E+02   2.022926E+03   8.877909E+01   1.177915E+01   9.977612E+00   3.043323E+00   4.731038E+00   1.597951E+00   6.813910E+00   5.284770E+00   2.937402E+00   2.878654E+00   3.165434E-01   3.075722E-01   1.148226E-01   1.092486E-01   2.644468E+00   1.715634E+00   1.288810E+00   1.660290E+00   2.349167E-01
   4.342811E-01   3.074131E-01   1.014882E-01   1.355913E-01   2.507831E-01   2.344049E-02   1.116879E-02   8.575822E-03   2.236186E-02   1.437135E-02   1.166375E-01   4.089168E-02   7.536159E-02   6.647645E-02   6.300389E-02   1.218872E+00   1.675622E+00   5.308290E+00   2.181840E+00   5.744593E+00   2.601177E+01   2.554992E+01   1.063576E+02   8.935892E+02   5.232548E+02   1.184570E+03   1.838129E+03   3.445884E+02   2.097220E+02   1.719075E+02   2.552054E+02   5.035672E+01   9.720776E+00   1.163016E+01   4.529514E+00   2.402412E+00   6.525054E+00   9.095780E+00   1.066607E+00   1.718871E-01   2.556158E-01   4.410868E-01   2.241565E-01   1.090886E-01   2.217719E-01   8.420948E-01   1.210542E+00   2.592173E-01   3.099348E-01   9.634665E-02
   1.707640E-01   3.966476E-02   7.693566E-02   6.773502E-02   1.310018E-02   1.293029E-02   1.081357E-02   1.282714E-02   2.319638E-02   1.050508E-02   2.909746E-02   1.606727E-02   4.520856E-02   2.170059E-01   1.314703E-01   9.615959E-02   2.384868E-01   8.026521E-01   3.366778E+00   4.205086E+00   1.469510E+01   4.666017E+01   4.556266E+02   8.347338E+02   5.001907E+02   8.181960E+02   6.729072E+02   2.303555E+02   8.848207E+02   1.593153E+02   1.679835E+02   2.072121E+01   3.353794E+01   1.157440E+01   1.678732E+01   1.010401E+00   1.028707E+00   1.550167E+00   1.695405E-01   1.323237E-01   7.347564E-02   2.541847E-02   1.982267E-01   1.152116E+00   1.185020E+00   6.732370E-01   2.409405E-01   1.422711E-01   1.105001E-01   2.382611E-01
   1.820506E-01   4.907150E-02   1.082383E-01   7.589881E-02   3.989761E-02   3.904128E-02   1.535302E-02   5.356411E-03   1.248466E-02   4.103782E-02   5.454947E-02   2.038185E-02   3.365661E-02   3.393827E-01   8.017091E-01   7.915897E-01   7.484844E-01   1.005235E+00   1.825881E+00   2.985981E+00   1.721363E+02   1.756129E+02   2.607517E+02   2.063616E+02   3.147885E+02   3.503336E+02   5.410206E+03   1.131359E+03   2.084279E+03   2.181416E+02   2.574498E+02   7.075591E+01   5.441467E+01   8.363779E+00   1.277942E+00   6.654416E-01   7.774206E-01   5.789816E-02   8.293179E-02   3.792904E-02   1.955303E-02   6.980941E-02   5.405303E-01   5.672675E+00   7.832496E-01   1.356998E+00   1.266754E-01   2.675238E-01   4.624912E-01   9.310459E-02
   1.336463E-01   4.303850E-02   5.787596E-02   7.550828E-02   3.409870E-02   4.215356E-02   6.222453E-03   2.898111E-03   7.064266E-03   4.407442E-02   7.275175E-02   9.750835E-02   9.137361E-02   9.394903E-01   2.832173E+00   1.556623E+00   1.967659E+00   3.801454E+00   1.466133E+00   8.480051E+00   3.288862E+02   8.018705E+02   1.670639E+02   1.730217E+02   8.757734E+01   1.354236E+02   1.236792E+03   4.236461E+02   7.715742E+02   1.104098E+02   8.953546E+02   4.493560E+01   6.956627E+00   7.643239E+00   1.402792E+00   2.735473E-01   2.282340E-01   2.387941E-01   3.741649E-01   1.246795E-01   4.206965E-01   3.516386E-01   7.089900E-01   1.052120E+00   5.296768E-01   6.598557E-01   6.757625E-01   4.308318E-01   1.426144E+00   2.717883E-01
   2.189216E-01   1.029590E-01   2.267328E-01   2.085549E-01   2.835013E-01   7.356206E-02   4.587685E-02   2.552551E-02   5.152880E-02   5.296338E-02   5.330306E-02   1.038624E-01   7.032453E-02   6.354404E-01   8.269519E+00   3.733949E+00   1.050167E+01   3.615527E+00   2.592604E+00   2.400200E+00   7.447841E+01   2.315495E+02   1.183060E+02   2.471873E+02   6.662032E+01   7.070438E+01   1.723503E+02   2.274864E+02   1.084448E+02   5.970437E+01   1.862283E+02   1.768904E+02   1.910419E+01   4.940462E+01   1.664926E+00   5.473354E-01   4.762444E-01   1.474426E+00   1.472552E+00   4.627667E-01   9.542537E-01   4.618889E-01   6.827090E-01   2.825747E-01   7.008439E-01   3.189245E+00   7.561806E+00   8.076261E-01   5.673094E-01   1.592812E-01