# UPW package for  MODFLOW-NWT, generated by Flopy.
        55    -1E+30         0         0 
         1
         0
   1.000000E+00
         0
         0
INTERNAL               1  (50E15.6) -1 #hk layer 1                    
   1.071522E+01   1.005723E+01   8.123940E+00   7.704956E+00   5.843443E+00   5.417928E+00   4.518577E+00   3.888579E+00   3.509698E+00   3.784954E+00   5.200293E+00   6.937666E+00   9.139160E+00   9.723013E+00   9.554742E+00   8.651568E+00   1.105573E+01   1.042628E+01   9.386089E+00   8.265508E+00   9.114684E+00   9.334921E+00   8.625939E+00   7.799303E+00   6.745237E+00   6.683816E+00   7.946147E+00   8.490910E+00   5.861228E+00   5.962356E+00   6.031125E+00   7.277215E+00   8.456229E+00   7.900712E+00   7.070142E+00   8.926982E+00   6.773263E+00   6.148034E+00   5.695672E+00   6.839447E+00   8.312277E+00   1.049241E+01   9.366088E+00   9.372356E+00   1.001401E+01   8.957516E+00   7.857254E+00   7.966218E+00   9.414259E+00   9.404887E+00
   1.197976E+01   1.098298E+01   9.161374E+00   8.907289E+00   6.532759E+00   5.377736E+00   4.402635E+00   4.100967E+00   3.899721E+00   5.207048E+00   5.216334E+00   7.303918E+00   1.089594E+01   9.485053E+00   9.026874E+00   8.643876E+00   8.555596E+00   8.309792E+00   8.775002E+00   7.867533E+00   7.004700E+00   9.621083E+00   9.389771E+00   7.373052E+00   7.116972E+00   7.371686E+00   7.654737E+00   8.516654E+00   9.083133E+00   7.920991E+00   7.948281E+00   9.148923E+00   1.041568E+01   8.075537E+00   6.324298E+00   6.354161E+00   7.491827E+00   8.529888E+00   6.755883E+00   8.021433E+00   7.908817E+00   9.490988E+00   9.728676E+00   7.673427E+00   7.011571E+00   8.792749E+00   9.408354E+00   8.688780E+00   9.411530E+00   8.450690E+00
   1.185881E+01   1.063475E+01   9.557388E+00   7.891541E+00   6.705835E+00   5.602120E+00   3.841319E+00   4.461861E+00   5.125333E+00   6.317409E+00   7.836277E+00   9.256346E+00   1.190551E+01   1.461218E+01   1.152777E+01   1.013865E+01   9.212494E+00   6.985601E+00   7.324859E+00   7.847402E+00   6.926779E+00   8.508405E+00   8.747297E+00   6.497772E+00   8.322326E+00   9.341611E+00   8.677188E+00   8.323436E+00   8.305769E+00   1.040771E+01   9.434210E+00   8.465982E+00   7.853330E+00   8.260098E+00   6.650410E+00   7.599946E+00   6.823417E+00   6.177168E+00   6.737314E+00   6.130273E+00   5.856746E+00   7.377098E+00   6.662264E+00   5.822661E+00   6.836410E+00   7.906033E+00   8.883059E+00   7.107738E+00   7.711175E+00   9.879955E+00
   1.524734E+01   1.502589E+01   1.018686E+01   8.098310E+00   6.680077E+00   6.038181E+00   4.689738E+00   5.262371E+00   5.615129E+00   7.858662E+00   8.499077E+00   1.289711E+01   1.324911E+01   1.080083E+01   1.083248E+01   1.068604E+01   7.738688E+00   6.943918E+00   6.762326E+00   7.269801E+00   6.661474E+00   7.352907E+00   6.969783E+00   6.958827E+00   9.674732E+00   9.602334E+00   8.696051E+00   8.654125E+00   9.045840E+00   7.563892E+00   8.646401E+00   8.736576E+00   8.572278E+00   6.619935E+00   5.870480E+00   6.467869E+00   5.761062E+00   5.330111E+00   5.772619E+00   4.759024E+00   5.132286E+00   4.912493E+00   5.100859E+00   5.812287E+00   6.239903E+00   7.356705E+00   9.577691E+00   7.048602E+00   8.592181E+00   9.434246E+00
   1.303464E+01   1.153999E+01   9.207648E+00   6.338547E+00   5.913280E+00   5.921782E+00   5.623020E+00   5.765199E+00   6.483539E+00   9.014535E+00   9.588934E+00   1.163487E+01   9.908710E+00   1.102809E+01   1.071002E+01   1.085301E+01   8.787473E+00   9.596561E+00   8.450337E+00   7.529724E+00   8.469785E+00   9.337482E+00   9.054677E+00   9.940118E+00   9.181349E+00   1.168311E+01   1.017808E+01   9.144067E+00   7.826157E+00   8.532349E+00   8.204429E+00   1.005229E+01   9.823497E+00   6.699474E+00   5.815566E+00   6.275476E+00   5.395276E+00   5.351736E+00   5.910933E+00   4.490366E+00   3.278500E+00   4.983658E+00   4.333721E+00   4.546302E+00   6.241977E+00   7.184823E+00   7.473252E+00   7.620676E+00   8.278184E+00   8.875087E+00
   1.231219E+01   1.083713E+01   9.954648E+00   6.562147E+00   7.590553E+00   6.726779E+00   6.457469E+00   6.989719E+00   7.413877E+00   7.307759E+00   1.012851E+01   1.087141E+01   8.759139E+00   1.094087E+01   8.270538E+00   9.913953E+00   9.162092E+00   9.625546E+00   9.315985E+00   8.612902E+00   1.034513E+01   1.004306E+01   1.308298E+01   1.070230E+01   8.718467E+00   1.128377E+01   1.057599E+01   1.173113E+01   7.970275E+00   8.143160E+00   9.125377E+00   8.072967E+00   9.337878E+00   7.774872E+00   6.339561E+00   6.661928E+00   7.238690E+00   6.412866E+00   5.050460E+00   5.011948E+00   4.639113E+00   4.003460E+00   3.468679E+00   4.842883E+00   6.910273E+00   7.674894E+00   5.796422E+00   6.918986E+00   8.414144E+00   9.015878E+00
   1.351185E+01   1.124115E+01   1.185345E+01   8.922243E+00   7.863910E+00   6.564487E+00   6.686554E+00   6.607868E+00   7.791515E+00   7.007782E+00   9.437967E+00   9.615815E+00   9.885441E+00   1.107585E+01   9.379659E+00   9.270217E+00   9.908262E+00   1.014738E+01   9.105139E+00   8.732287E+00   1.224014E+01   1.227240E+01   1.372237E+01   9.488046E+00   9.697516E+00   1.066700E+01   8.450611E+00   9.694962E+00   8.871504E+00   9.450806E+00   8.870938E+00   9.741134E+00   9.537337E+00   9.699069E+00   6.954039E+00   6.264214E+00   6.714714E+00   6.173554E+00   5.734599E+00   4.473866E+00   5.286275E+00   3.598065E+00   4.573091E+00   5.837163E+00   7.680131E+00   8.811696E+00   7.867950E+00   9.259051E+00   8.718130E+00   8.225716E+00
   1.613341E+01   1.493580E+01   1.228750E+01   1.111588E+01   8.735187E+00   8.726257E+00   8.198992E+00   7.612535E+00   7.555774E+00   6.249561E+00   8.732320E+00   1.232774E+01   1.196101E+01   1.220134E+01   1.177796E+01   1.165360E+01   1.211735E+01   1.613926E+01   1.518303E+01   1.163384E+01   1.130974E+01   1.322808E+01   1.433748E+01   9.797987E+00   1.003753E+01   1.046954E+01   8.149387E+00   9.564049E+00   9.651011E+00   8.473365E+00   7.784332E+00   8.863130E+00   8.697459E+00   8.281250E+00   8.502491E+00   5.957147E+00   6.772182E+00   6.356989E+00   5.869133E+00   5.192458E+00   4.157867E+00   4.338575E+00   5.117945E+00   6.310465E+00   7.301995E+00   9.033167E+00   8.913198E+00   8.221845E+00   1.015206E+01   7.307039E+00
   1.204920E+01   1.391581E+01   1.466822E+01   1.357562E+01   1.117510E+01   9.788023E+00   8.193557E+00   9.446623E+00   8.438663E+00   6.664537E+00   9.511556E+00   1.272143E+01   1.193994E+01   1.116136E+01   1.130903E+01   1.334496E+01   1.330595E+01   1.951522E+01   1.901333E+01   1.362816E+01   1.423038E+01   1.492374E+01   1.046330E+01   1.163164E+01   1.229402E+01   9.809608E+00   9.069994E+00   9.687006E+00   9.211825E+00   7.773767E+00   9.035706E+00   8.456507E+00   7.434349E+00   8.312574E+00   6.521777E+00   6.406534E+00   5.193018E+00   5.507640E+00   5.745893E+00   5.320206E+00   4.530176E+00   4.107240E+00   4.486808E+00   5.628428E+00   6.411328E+00   7.369457E+00   9.403957E+00   7.139607E+00   7.060076E+00   6.937254E+00
   1.356713E+01   1.154357E+01   1.294454E+01   1.233947E+01   1.053987E+01   9.727152E+00   1.031776E+01   9.341534E+00   7.626769E+00   9.850683E+00   1.294819E+01   1.291459E+01   1.386118E+01   1.130849E+01   1.112167E+01   1.287476E+01   1.374972E+01   1.756235E+01   1.589163E+01   1.756576E+01   1.527021E+01   1.645898E+01   1.453907E+01   1.340594E+01   1.162967E+01   1.023078E+01   9.963211E+00   9.542708E+00   1.062023E+01   8.318136E+00   9.319396E+00   8.747579E+00   1.020531E+01   8.545161E+00   7.053497E+00   6.414420E+00   5.096590E+00   5.609725E+00   5.329017E+00   5.904013E+00   4.675223E+00   4.206544E+00   3.474589E+00   4.442601E+00   5.612430E+00   6.303118E+00   6.180891E+00   6.120539E+00   7.652259E+00   7.220751E+00
   1.340730E+01   1.207558E+01   1.328709E+01   1.250869E+01   1.045392E+01   1.120526E+01   1.067917E+01   9.024826E+00   1.055485E+01   1.326802E+01   1.617646E+01   1.621099E+01   1.341130E+01   1.201258E+01   1.234435E+01   1.245457E+01   1.386420E+01   1.595876E+01   1.793983E+01   1.595486E+01   1.787344E+01   1.549785E+01   1.335689E+01   1.049418E+01   9.621465E+00   1.100831E+01   8.306576E+00   1.188548E+01   1.176213E+01   7.927585E+00   8.455672E+00   9.360178E+00   7.441432E+00   7.666150E+00   6.744431E+00   6.471178E+00   6.119669E+00   6.657569E+00   6.994623E+00   6.441219E+00   5.309827E+00   5.421888E+00   4.606722E+00   5.150462E+00   7.431671E+00   5.361746E+00   5.555840E+00   7.274574E+00   7.695238E+00   7.057659E+00
   1.306434E+01   1.331685E+01   1.144878E+01   1.280849E+01   1.289415E+01   1.219457E+01   1.214030E+01   1.217500E+01   1.455208E+01   1.551384E+01   1.641795E+01   1.548977E+01   1.454987E+01   1.525638E+01   1.317322E+01   1.027284E+01   9.900775E+00   1.119949E+01   9.917105E+00   1.179101E+01   1.638385E+01   1.421430E+01   1.293226E+01   1.114373E+01   1.032956E+01   1.096522E+01   9.721421E+00   9.637189E+00   9.772879E+00   8.012389E+00   8.523567E+00   7.767735E+00   8.716957E+00   6.576871E+00   5.715599E+00   6.905281E+00   6.836147E+00   7.373073E+00   7.125604E+00   7.236208E+00   5.686126E+00   5.477789E+00   5.319477E+00   4.979023E+00   4.767350E+00   5.139475E+00   5.019874E+00   6.494870E+00   6.759926E+00   7.295515E+00
   1.650016E+01   1.521247E+01   1.474442E+01   1.433459E+01   1.305221E+01   1.517419E+01   1.826077E+01   1.554752E+01   1.385680E+01   1.523408E+01   1.705300E+01   1.514324E+01   1.667747E+01   1.276171E+01   1.188455E+01   8.825014E+00   8.741299E+00   9.954708E+00   1.110872E+01   1.278272E+01   1.450223E+01   1.863552E+01   1.542337E+01   1.268125E+01   1.080314E+01   1.285135E+01   9.023900E+00   1.034372E+01   1.041113E+01   8.050778E+00   9.233607E+00   8.755603E+00   8.965054E+00   8.030605E+00   6.551178E+00   6.910072E+00   6.848894E+00   7.745061E+00   6.269148E+00   7.181232E+00   5.398791E+00   5.656683E+00   5.502460E+00   6.202724E+00   6.070718E+00   4.814624E+00   5.012903E+00   7.409527E+00   7.008450E+00   8.178800E+00
   1.448493E+01   1.663106E+01   1.318905E+01   1.509558E+01   1.685366E+01   1.638493E+01   2.156434E+01   1.798292E+01   1.986543E+01   1.430766E+01   1.526626E+01   1.506589E+01   1.644984E+01   1.443392E+01   1.331970E+01   1.084328E+01   1.023671E+01   1.026119E+01   1.145973E+01   1.350486E+01   2.073751E+01   2.420039E+01   1.883027E+01   1.660502E+01   1.370042E+01   1.229404E+01   1.183638E+01   1.537812E+01   9.245559E+00   8.490848E+00   9.841038E+00   7.624110E+00   6.725163E+00   7.052101E+00   6.874623E+00   7.742916E+00   6.886350E+00   6.606833E+00   7.592656E+00   5.411179E+00   6.643539E+00   6.285610E+00   7.161442E+00   7.273859E+00   6.089787E+00   6.279154E+00   7.719394E+00   8.592632E+00   8.745120E+00   9.720848E+00
   1.590010E+01   1.657596E+01   1.259406E+01   1.443044E+01   1.661556E+01   1.879614E+01   1.990604E+01   1.668612E+01   2.494560E+01   1.857331E+01   1.407361E+01   1.321852E+01   1.594837E+01   1.645091E+01   1.328092E+01   1.174939E+01   1.140121E+01   1.248319E+01   1.162715E+01   1.414983E+01   2.271965E+01   2.734631E+01   2.549025E+01   2.578320E+01   2.388214E+01   1.597454E+01   1.809150E+01   1.399201E+01   1.172905E+01   1.061886E+01   8.862979E+00   6.927449E+00   8.111287E+00   8.421714E+00   7.862586E+00   8.540308E+00   8.398820E+00   6.947884E+00   9.240784E+00   7.483779E+00   8.098718E+00   7.265354E+00   9.253222E+00   1.045138E+01   8.386899E+00   9.064038E+00   8.598033E+00   9.365901E+00   9.034879E+00   8.559144E+00
   1.460192E+01   1.430979E+01   1.629916E+01   2.157468E+01   1.617259E+01   1.776552E+01   1.954567E+01   2.083191E+01   2.200749E+01   1.697674E+01   1.337833E+01   1.154555E+01   1.329720E+01   1.353764E+01   1.330693E+01   1.351976E+01   1.334705E+01   1.478896E+01   1.227421E+01   1.513310E+01   2.383880E+01   2.517538E+01   3.194636E+01   2.758229E+01   2.810323E+01   2.151130E+01   2.186316E+01   1.361697E+01   1.103443E+01   1.052915E+01   8.903057E+00   7.217996E+00   6.530109E+00   8.328699E+00   9.119924E+00   9.422648E+00   1.143254E+01   1.060555E+01   1.156706E+01   1.063764E+01   1.209755E+01   1.082696E+01   1.062706E+01   1.233753E+01   1.151051E+01   1.021872E+01   1.086353E+01   1.163353E+01   9.034309E+00   9.663787E+00
   1.163735E+01   1.470642E+01   1.608134E+01   1.989981E+01   2.166677E+01   2.133128E+01   1.777638E+01   1.881962E+01   2.088649E+01   1.928164E+01   1.641903E+01   1.398739E+01   1.310184E+01   1.171786E+01   1.191889E+01   1.463667E+01   2.173399E+01   1.836184E+01   1.886518E+01   1.902800E+01   1.885279E+01   2.588683E+01   3.681038E+01   3.212497E+01   2.432380E+01   2.876333E+01   2.479031E+01   1.923365E+01   1.673977E+01   1.491551E+01   1.404335E+01   1.134573E+01   9.082469E+00   1.108643E+01   9.555520E+00   8.851549E+00   8.802999E+00   1.299469E+01   1.431246E+01   1.868779E+01   1.618593E+01   1.271148E+01   1.089742E+01   1.309552E+01   1.137605E+01   1.197203E+01   1.196889E+01   1.277014E+01   1.239527E+01   1.177353E+01
   1.203173E+01   1.154923E+01   1.635049E+01   1.738623E+01   2.190019E+01   2.242282E+01   1.989488E+01   1.841464E+01   2.087605E+01   2.460268E+01   2.102441E+01   1.688850E+01   1.276807E+01   1.209108E+01   1.361316E+01   1.353961E+01   1.689682E+01   1.793404E+01   1.685934E+01   2.246009E+01   1.647201E+01   2.290408E+01   2.554996E+01   3.242146E+01   3.657854E+01   3.280343E+01   2.920473E+01   2.353638E+01   1.897421E+01   1.684060E+01   1.706980E+01   1.544256E+01   1.274143E+01   1.161778E+01   1.080180E+01   1.188769E+01   1.424074E+01   1.449579E+01   1.795301E+01   1.980008E+01   1.568650E+01   1.334468E+01   1.265873E+01   1.275631E+01   1.304414E+01   1.278465E+01   1.304362E+01   1.327162E+01   1.199703E+01   1.131658E+01
   1.381917E+01   1.578914E+01   1.528673E+01   1.606613E+01   2.119968E+01   2.187373E+01   2.022473E+01   1.956424E+01   1.737169E+01   1.695741E+01   1.744767E+01   1.780716E+01   1.585678E+01   1.550852E+01   1.691709E+01   1.873528E+01   2.177212E+01   1.767441E+01   1.882949E+01   1.977976E+01   2.498466E+01   2.408253E+01   2.647900E+01   3.021000E+01   3.397431E+01   3.353484E+01   3.449289E+01   2.281677E+01   1.846590E+01   1.830700E+01   1.564163E+01   1.258301E+01   1.208376E+01   1.047969E+01   9.913420E+00   1.365633E+01   1.334744E+01   1.529419E+01   1.933798E+01   1.811522E+01   1.575537E+01   1.735767E+01   1.669555E+01   1.228313E+01   1.294734E+01   1.408786E+01   1.955682E+01   1.865261E+01   1.657802E+01   1.392065E+01
   1.421222E+01   1.535161E+01   1.310240E+01   1.791129E+01   2.254826E+01   2.291799E+01   2.392144E+01   2.216328E+01   1.909069E+01   1.596042E+01   1.778623E+01   1.646833E+01   1.772546E+01   1.842767E+01   1.964990E+01   1.790443E+01   1.714777E+01   2.241750E+01   2.421689E+01   2.610780E+01   2.437354E+01   3.360654E+01   3.407710E+01   4.285471E+01   3.432550E+01   3.082993E+01   3.464245E+01   2.285526E+01   2.035387E+01   1.892552E+01   1.839496E+01   1.437264E+01   1.235566E+01   9.655488E+00   1.038496E+01   1.118811E+01   1.243493E+01   1.319861E+01   1.452857E+01   1.862714E+01   2.386777E+01   1.917823E+01   1.760120E+01   1.599140E+01   1.250628E+01   1.511826E+01   1.774541E+01   2.172996E+01   2.274742E+01   2.000946E+01
   1.102062E+01   1.437571E+01   1.367018E+01   1.562704E+01   2.941835E+01   2.491811E+01   2.421752E+01   2.582954E+01   2.616869E+01   1.951847E+01   2.059137E+01   1.820643E+01   2.081903E+01   2.202170E+01   1.976257E+01   1.956574E+01   1.818221E+01   2.320390E+01   2.987154E+01   3.726411E+01   3.464936E+01   4.645167E+01   4.312774E+01   3.739189E+01   4.604092E+01   4.008741E+01   4.264020E+01   3.207227E+01   2.273623E+01   2.202992E+01   1.954873E+01   1.790348E+01   1.141224E+01   1.317547E+01   1.518825E+01   1.255115E+01   1.477558E+01   1.545809E+01   1.801621E+01   2.107767E+01   2.094737E+01   1.939249E+01   2.062273E+01   1.614016E+01   1.291854E+01   1.292560E+01   1.600711E+01   2.123853E+01   2.319721E+01   1.734585E+01
   1.245760E+01   1.541692E+01   1.932928E+01   2.195810E+01   2.904626E+01   2.897331E+01   3.195568E+01   3.650286E+01   3.450803E+01   3.286867E+01   2.325490E+01   2.277538E+01   1.643307E+01   2.118986E+01   2.262956E+01   2.701605E+01   2.552888E+01   2.508420E+01   3.562806E+01   3.299851E+01   4.023465E+01   4.941205E+01   5.329292E+01   4.342663E+01   5.665703E+01   4.355765E+01   3.976259E+01   3.029461E+01   2.667201E+01   2.223872E+01   1.810061E+01   1.497787E+01   1.187107E+01   1.339003E+01   1.824739E+01   1.944198E+01   1.848502E+01   1.583312E+01   1.839050E+01   1.842246E+01   1.915981E+01   1.629327E+01   1.884789E+01   1.424367E+01   1.223904E+01   1.182819E+01   1.804296E+01   1.999624E+01   1.709596E+01   1.920080E+01
   1.358170E+01   1.564330E+01   1.992878E+01   2.324429E+01   2.814907E+01   3.051806E+01   3.685904E+01   3.764931E+01   3.806328E+01   3.485758E+01   2.800704E+01   2.551478E+01   2.197068E+01   1.873132E+01   2.384522E+01   3.453469E+01   2.812201E+01   3.074364E+01   3.786475E+01   4.311265E+01   4.264315E+01   4.576014E+01   5.890363E+01   5.001260E+01   6.543054E+01   5.139287E+01   4.574128E+01   3.680224E+01   3.033877E+01   2.252427E+01   1.719129E+01   1.566614E+01   1.194048E+01   1.329996E+01   1.954658E+01   2.013574E+01   2.264322E+01   2.393381E+01   1.973495E+01   1.814148E+01   1.832710E+01   1.836206E+01   1.551705E+01   1.558048E+01   1.572646E+01   1.477374E+01   1.698944E+01   1.717499E+01   1.636796E+01   1.585097E+01
   1.639414E+01   1.474739E+01   1.763371E+01   2.255992E+01   3.239632E+01   3.059372E+01   2.819836E+01   3.968779E+01   3.329727E+01   2.748576E+01   2.935869E+01   2.781033E+01   2.535794E+01   2.258114E+01   2.734527E+01   3.765016E+01   4.062308E+01   3.916270E+01   4.293529E+01   5.179921E+01   5.913326E+01   6.361042E+01   6.268400E+01   6.901542E+01   6.488431E+01   7.020450E+01   5.190083E+01   3.968679E+01   3.551680E+01   2.441094E+01   1.991659E+01   1.625102E+01   1.397018E+01   1.219436E+01   1.653030E+01   1.942015E+01   2.487073E+01   2.218603E+01   2.318698E+01   2.357472E+01   2.439450E+01   1.797711E+01   1.436271E+01   2.018019E+01   1.838739E+01   1.800511E+01   1.703228E+01   1.506409E+01   1.672470E+01   1.743253E+01
   1.210929E+01   1.746506E+01   1.426327E+01   2.284188E+01   2.986765E+01   2.346210E+01   2.401248E+01   2.528046E+01   2.551628E+01   2.482959E+01   2.100997E+01   2.345401E+01   2.643857E+01   2.469199E+01   2.578704E+01   4.109160E+01   4.056714E+01   4.547808E+01   3.759845E+01   4.910318E+01   5.264870E+01   5.239754E+01   6.496851E+01   5.859358E+01   7.601875E+01   7.303586E+01   6.655473E+01   4.484528E+01   3.654380E+01   3.475041E+01   2.071040E+01   1.473486E+01   1.334131E+01   1.436797E+01   2.221432E+01   2.237549E+01   2.883079E+01   2.939135E+01   2.733862E+01   2.135679E+01   2.351380E+01   2.044856E+01   1.743745E+01   1.872083E+01   1.866779E+01   1.925430E+01   1.836631E+01   1.458936E+01   1.467632E+01   1.519648E+01
   1.338853E+01   1.549636E+01   1.762991E+01   2.185507E+01   2.122925E+01   1.769571E+01   2.346355E+01   2.104707E+01   1.644633E+01   1.736386E+01   1.837669E+01   2.310213E+01   2.638486E+01   2.683939E+01   2.646542E+01   3.394614E+01   4.474097E+01   5.410981E+01   4.508656E+01   4.105119E+01   4.822253E+01   4.459787E+01   5.501632E+01   5.203400E+01   6.320345E+01   7.122612E+01   6.215281E+01   4.624244E+01   4.189676E+01   2.999221E+01   2.422985E+01   2.012071E+01   1.619675E+01   2.166679E+01   2.029104E+01   2.394650E+01   2.840443E+01   3.250134E+01   3.393190E+01   3.083108E+01   2.208454E+01   2.308737E+01   2.194728E+01   2.150746E+01   1.793244E+01   2.145209E+01   1.513055E+01   1.323690E+01   1.338072E+01   1.244610E+01
   1.533236E+01   1.262422E+01   1.900824E+01   2.293058E+01   2.115394E+01   1.814998E+01   1.981993E+01   1.754590E+01   1.662399E+01   1.489768E+01   1.788899E+01   1.679415E+01   2.091084E+01   2.025958E+01   2.155755E+01   2.249360E+01   3.266978E+01   4.355895E+01   4.179564E+01   4.153210E+01   4.962819E+01   4.366431E+01   4.061604E+01   4.682177E+01   4.588289E+01   4.819774E+01   5.825530E+01   3.617406E+01   3.361517E+01   3.163434E+01   2.274661E+01   2.291587E+01   2.439083E+01   2.525388E+01   1.975618E+01   2.545042E+01   2.557187E+01   2.437405E+01   3.342188E+01   2.702006E+01   2.131418E+01   2.428165E+01   1.973130E+01   2.185185E+01   2.063067E+01   2.071793E+01   1.977690E+01   1.375170E+01   1.284486E+01   1.619576E+01
   1.370687E+01   1.648812E+01   1.702386E+01   1.753679E+01   2.047522E+01   1.973191E+01   1.629615E+01   1.702283E+01   1.675752E+01   1.959601E+01   1.868814E+01   1.565971E+01   1.183699E+01   1.900743E+01   2.025862E+01   2.519602E+01   2.300699E+01   3.728539E+01   3.703325E+01   3.441458E+01   4.208081E+01   3.819667E+01   4.289218E+01   4.884209E+01   4.760678E+01   3.331321E+01   3.568653E+01   3.191800E+01   2.403994E+01   3.184965E+01   2.965487E+01   2.125057E+01   2.336506E+01   3.263626E+01   2.938917E+01   3.342066E+01   2.924726E+01   2.342459E+01   2.372449E+01   2.315421E+01   2.080323E+01   2.197499E+01   2.116910E+01   2.184618E+01   2.540009E+01   1.999785E+01   1.685502E+01   1.520707E+01   1.438049E+01   1.384982E+01
   1.293104E+01   1.509106E+01   1.306660E+01   1.649790E+01   1.747349E+01   1.915017E+01   1.680496E+01   2.061136E+01   2.049241E+01   1.523776E+01   1.604842E+01   1.333772E+01   1.057225E+01   1.609791E+01   1.919041E+01   2.531708E+01   2.763417E+01   3.338548E+01   2.462556E+01   2.788494E+01   3.801898E+01   3.722619E+01   3.688300E+01   3.756802E+01   3.532289E+01   2.850198E+01   3.004170E+01   2.808176E+01   2.614142E+01   2.659128E+01   2.580990E+01   2.659757E+01   2.228785E+01   2.456976E+01   3.181121E+01   2.787945E+01   2.439881E+01   2.393143E+01   2.374632E+01   2.628733E+01   2.369695E+01   2.410544E+01   1.798250E+01   2.033390E+01   2.123248E+01   2.374213E+01   2.209430E+01   1.662399E+01   1.474704E+01   1.205276E+01
   1.208478E+01   1.151805E+01   1.235892E+01   1.314219E+01   1.221572E+01   1.221239E+01   1.578879E+01   1.880921E+01   1.853246E+01   1.527225E+01   1.341071E+01   1.448694E+01   1.149845E+01   1.378930E+01   1.778570E+01   1.889565E+01   1.916462E+01   2.146488E+01   2.248079E+01   2.704744E+01   3.103411E+01   4.167447E+01   3.455214E+01   3.054824E+01   2.699380E+01   2.721455E+01   3.065247E+01   2.210330E+01   2.414699E+01   2.374179E+01   2.348449E+01   2.980105E+01   2.108001E+01   2.145741E+01   2.085954E+01   2.232074E+01   2.258559E+01   2.408853E+01   2.520556E+01   2.219301E+01   2.001186E+01   2.035091E+01   1.508907E+01   1.582674E+01   2.077521E+01   2.027028E+01   1.615411E+01   1.617795E+01   1.496693E+01   1.592463E+01
   8.744121E+00   1.128732E+01   1.254895E+01   1.379960E+01   1.257417E+01   1.024249E+01   1.437838E+01   1.380276E+01   1.469888E+01   1.252141E+01   1.373880E+01   1.184037E+01   1.499821E+01   1.371841E+01   1.589728E+01   1.666207E+01   1.576967E+01   2.111835E+01   2.130774E+01   2.979328E+01   3.592527E+01   3.948891E+01   3.152378E+01   3.149974E+01   2.357615E+01   2.676602E+01   2.530856E+01   2.257593E+01   1.940498E+01   2.237239E+01   2.301832E+01   2.648883E+01   2.307035E+01   2.225203E+01   2.167102E+01   2.621402E+01   2.537366E+01   2.276750E+01   2.136656E+01   1.870085E+01   1.887877E+01   1.498071E+01   1.365291E+01   1.503322E+01   2.009338E+01   1.614383E+01   1.611512E+01   1.855906E+01   1.436492E+01   1.552333E+01
   1.207153E+01   1.337465E+01   1.241429E+01   1.590775E+01   1.536592E+01   1.257795E+01   1.180202E+01   1.272074E+01   1.581877E+01   1.260194E+01   1.053542E+01   9.591697E+00   1.287577E+01   1.094512E+01   1.700860E+01   1.409336E+01   1.286083E+01   1.629549E+01   1.722601E+01   2.600671E+01   3.437534E+01   2.988259E+01   3.223721E+01   2.837404E+01   2.591823E+01   3.328064E+01   2.441053E+01   2.458956E+01   2.345546E+01   2.369233E+01   2.614508E+01   2.165353E+01   2.341201E+01   2.049473E+01   2.029926E+01   2.498720E+01   2.571528E+01   2.773136E+01   2.868351E+01   2.244197E+01   2.002688E+01   1.999549E+01   1.682286E+01   1.932112E+01   1.392462E+01   1.279592E+01   1.351864E+01   1.333450E+01   1.318513E+01   1.544603E+01
   1.303728E+01   1.149356E+01   1.349744E+01   1.457099E+01   1.385782E+01   1.216174E+01   1.132672E+01   1.135571E+01   1.348963E+01   1.242644E+01   1.044000E+01   1.146284E+01   9.738488E+00   1.100422E+01   1.326849E+01   1.312961E+01   1.389361E+01   1.479988E+01   1.495463E+01   2.389770E+01   3.061584E+01   3.387086E+01   3.029691E+01   3.433463E+01   2.740808E+01   2.315520E+01   2.476204E+01   2.807020E+01   2.779354E+01   2.980323E+01   2.277646E+01   2.348686E+01   1.805888E+01   1.592616E+01   2.217656E+01   2.452086E+01   3.181099E+01   2.816768E+01   2.176216E+01   2.587924E+01   2.310456E+01   2.057819E+01   1.709868E+01   1.739608E+01   1.595098E+01   1.363288E+01   1.351187E+01   1.281970E+01   1.869504E+01   1.750069E+01
   1.245950E+01   1.491760E+01   1.478474E+01   1.573219E+01   1.514178E+01   1.524082E+01   1.530740E+01   1.460556E+01   1.236597E+01   1.279628E+01   1.132984E+01   1.163245E+01   1.153955E+01   1.315146E+01   1.391247E+01   1.239293E+01   1.294489E+01   1.246292E+01   1.516163E+01   2.031911E+01   3.004155E+01   2.747174E+01   2.726021E+01   2.998326E+01   2.415037E+01   2.359359E+01   2.238298E+01   2.740222E+01   2.660642E+01   3.165808E+01   2.195988E+01   2.019819E+01   1.461628E+01   1.590057E+01   1.971943E+01   2.253163E+01   3.035916E+01   2.806688E+01   2.129916E+01   2.179594E+01   2.164006E+01   1.919708E+01   1.907405E+01   1.869728E+01   1.930770E+01   2.102381E+01   1.840011E+01   1.960834E+01   1.804340E+01   1.788257E+01
   1.446812E+01   1.434705E+01   1.626342E+01   1.571750E+01   1.363127E+01   1.140829E+01   1.320809E+01   1.425403E+01   1.240438E+01   1.097843E+01   1.115619E+01   1.039783E+01   1.104812E+01   9.310439E+00   9.669298E+00   1.382914E+01   1.117583E+01   1.263409E+01   1.752002E+01   2.431295E+01   2.709435E+01   2.908727E+01   2.340272E+01   2.059249E+01   2.553617E+01   2.289314E+01   1.853091E+01   2.205805E+01   2.520832E+01   2.609774E+01   3.021924E+01   2.339982E+01   1.826549E+01   1.641640E+01   1.660412E+01   1.905265E+01   2.673166E+01   2.599672E+01   2.491904E+01   1.891394E+01   1.846433E+01   1.926233E+01   1.974180E+01   1.819531E+01   2.006975E+01   2.690359E+01   2.128670E+01   1.686420E+01   1.842522E+01   1.921006E+01
   1.682587E+01   1.452475E+01   1.740923E+01   1.661958E+01   1.458957E+01   1.322412E+01   1.667455E+01   1.392725E+01   1.253876E+01   1.028540E+01   1.139248E+01   1.151176E+01   1.255031E+01   1.072157E+01   1.144196E+01   1.078039E+01   1.350937E+01   1.729662E+01   1.716320E+01   2.037897E+01   1.931515E+01   2.433192E+01   2.234618E+01   2.668783E+01   2.614306E+01   2.071985E+01   1.644140E+01   1.817320E+01   2.191940E+01   2.460118E+01   2.451674E+01   2.972539E+01   2.133246E+01   2.127028E+01   2.204395E+01   2.172633E+01   2.704074E+01   2.811622E+01   2.149755E+01   2.169639E+01   2.203771E+01   2.121095E+01   2.256517E+01   2.018416E+01   1.992891E+01   1.959583E+01   2.169269E+01   2.030355E+01   1.806331E+01   1.891908E+01
   1.464174E+01   1.563132E+01   1.405988E+01   1.625451E+01   1.517925E+01   1.698417E+01   1.764040E+01   1.692301E+01   1.348663E+01   1.201964E+01   1.425160E+01   1.208090E+01   1.222086E+01   1.550198E+01   1.282701E+01   1.393964E+01   1.636341E+01   1.772684E+01   2.070632E+01   1.815713E+01   1.953844E+01   2.419313E+01   2.151303E+01   2.432244E+01   2.904885E+01   2.422921E+01   1.869836E+01   1.824959E+01   1.999579E+01   2.125450E+01   2.344415E+01   2.656724E+01   2.498841E+01   1.896350E+01   1.922966E+01   1.982302E+01   2.645890E+01   2.781523E+01   2.016291E+01   2.442346E+01   2.041521E+01   1.977365E+01   2.211092E+01   1.992072E+01   2.155190E+01   2.209244E+01   1.945984E+01   1.802645E+01   2.069912E+01   2.062763E+01
   1.397573E+01   1.872525E+01   1.610262E+01   1.819496E+01   1.536118E+01   1.849537E+01   1.719157E+01   1.629857E+01   1.359665E+01   1.407477E+01   1.310061E+01   1.129582E+01   1.182085E+01   1.240037E+01   1.306545E+01   1.710318E+01   1.628779E+01   1.726317E+01   1.662840E+01   1.440271E+01   1.828218E+01   1.922530E+01   1.884169E+01   2.616380E+01   2.582932E+01   2.478817E+01   2.042329E+01   1.994410E+01   2.231160E+01   1.775074E+01   2.391283E+01   2.687509E+01   2.362764E+01   2.914848E+01   2.170478E+01   1.982029E+01   2.203872E+01   2.967246E+01   2.944007E+01   2.078196E+01   2.233015E+01   1.748269E+01   2.229140E+01   1.825485E+01   2.057199E+01   2.242060E+01   1.847775E+01   1.875712E+01   2.277805E+01   1.933441E+01
   1.405974E+01   1.662569E+01   2.162664E+01   1.881855E+01   1.875417E+01   1.975930E+01   1.913625E+01   1.846063E+01   1.802008E+01   1.714033E+01   1.443529E+01   1.503300E+01   1.361383E+01   1.169989E+01   1.243963E+01   1.477112E+01   1.265844E+01   1.373861E+01   1.479476E+01   1.253726E+01   1.649837E+01   1.493362E+01   1.586509E+01   1.870142E+01   1.939533E+01   2.008076E+01   2.078193E+01   1.940733E+01   1.934090E+01   1.971326E+01   1.869959E+01   2.142776E+01   1.905077E+01   2.589780E+01   2.772528E+01   1.895616E+01   2.505522E+01   2.867780E+01   3.638249E+01   2.733677E+01   2.035012E+01   2.526871E+01   1.854417E+01   2.057315E+01   2.022124E+01   2.331594E+01   2.200111E+01   1.909359E+01   2.012296E+01   1.945675E+01