# UPW package for  MODFLOW-NWT, generated by Flopy.
        55    -1E+30         0         0 
         1
         0
   1.000000E+00
         0
         0
INTERNAL               1  (50E15.6) -1 #hk layer 1                    
   1.237034E+00   1.776757E+00   2.423469E+00   1.826694E+00   1.135293E+00   7.777586E-01   8.565081E-01   1.034320E+00   1.788858E+00   1.917766E+00   1.623715E+00   1.377970E+00   2.818718E+00   1.727720E+00   1.569136E+00   8.475197E-01   1.701857E+00   1.368085E+00   1.172521E+00   1.951429E+00   1.360204E+00   1.138000E+00   8.097553E-01   8.288299E-01   9.129800E-01   1.186640E+00   1.739159E+00   1.955029E+00   2.212238E+00   3.150095E+00   1.711379E+00   1.568577E+00   1.905383E+00   5.949456E-01   6.512144E-01   1.110820E+00   9.859143E-01   1.204478E+00   1.001114E+00   1.529911E+00   1.790893E+00   1.818244E+00   3.444745E+00   4.389098E+00   4.813950E+00   2.445298E+00   1.779440E+00   1.501699E+00   1.031497E+00   1.595529E+00
   1.251287E+00   2.494767E+00   3.195456E+00   3.015722E+00   1.371860E+00   9.388705E-01   1.059454E+00   1.933927E+00   2.464772E+00   1.684300E+00   1.507208E+00   1.393853E+00   2.734890E+00   1.845363E+00   1.179161E+00   1.002126E+00   2.266819E+00   1.501087E+00   1.322973E+00   1.321975E+00   1.205309E+00   1.581225E+00   1.036468E+00   7.621457E-01   8.469458E-01   1.376704E+00   2.392512E+00   1.750719E+00   2.126548E+00   1.608029E+00   1.294279E+00   1.463451E+00   1.458609E+00   6.316587E-01   4.322670E-01   4.369000E-01   4.360483E-01   1.159677E+00   1.097384E+00   1.412116E+00   2.389940E+00   2.787121E+00   2.985089E+00   4.216214E+00   5.045639E+00   4.044401E+00   3.445629E+00   1.642012E+00   1.294029E+00   1.837741E+00
   1.028719E+00   1.866778E+00   2.219417E+00   1.563744E+00   1.128452E+00   7.217901E-01   1.338794E+00   1.678381E+00   1.505593E+00   1.288234E+00   1.898208E+00   1.358844E+00   1.547313E+00   1.246569E+00   1.676045E+00   1.601627E+00   1.144854E+00   1.280154E+00   1.005931E+00   1.058099E+00   1.128137E+00   1.087653E+00   1.039234E+00   6.894997E-01   5.710608E-01   9.506466E-01   1.502885E+00   2.034867E+00   1.674225E+00   1.308964E+00   1.248190E+00   1.408565E+00   1.000645E+00   8.608608E-01   7.404646E-01   6.339142E-01   8.221300E-01   1.120360E+00   1.261164E+00   1.380150E+00   2.707663E+00   3.001339E+00   4.591518E+00   3.696204E+00   3.396579E+00   2.134233E+00   2.066822E+00   1.252295E+00   1.066553E+00   1.973372E+00
   1.775494E+00   2.071148E+00   3.123238E+00   1.976834E+00   1.079302E+00   7.596347E-01   1.250259E+00   1.539087E+00   1.337418E+00   1.351369E+00   1.290918E+00   1.137139E+00   8.191622E-01   5.638913E-01   1.477310E+00   2.071326E+00   1.121064E+00   1.500715E+00   8.911517E-01   9.737054E-01   9.608056E-01   7.566447E-01   5.830388E-01   4.849607E-01   5.830081E-01   7.402430E-01   6.870345E-01   9.544730E-01   1.457750E+00   1.275997E+00   1.024269E+00   1.002044E+00   1.003806E+00   1.177812E+00   1.268100E+00   1.116544E+00   1.382042E+00   1.492921E+00   1.383263E+00   1.663092E+00   2.611840E+00   2.189090E+00   2.867609E+00   2.648311E+00   3.179290E+00   2.515136E+00   2.727556E+00   1.045217E+00   1.396382E+00   1.791016E+00
   1.688063E+00   1.368533E+00   1.882149E+00   1.608534E+00   1.007479E+00   7.327850E-01   9.840737E-01   1.495709E+00   1.553300E+00   1.456460E+00   1.252443E+00   1.206100E+00   7.898225E-01   8.200952E-01   1.218854E+00   1.288879E+00   8.100863E-01   6.839399E-01   9.740126E-01   7.192822E-01   7.537366E-01   7.007928E-01   5.424283E-01   4.556153E-01   3.077175E-01   3.710565E-01   6.255128E-01   1.221526E+00   2.495773E+00   1.481207E+00   1.517776E+00   1.245773E+00   1.210762E+00   1.197013E+00   1.589643E+00   1.959588E+00   1.318184E+00   1.822556E+00   1.171531E+00   1.831948E+00   1.672788E+00   2.305209E+00   2.142678E+00   2.584842E+00   2.050169E+00   3.111699E+00   2.796897E+00   3.370105E+00   3.190662E+00   1.588111E+00
   1.912487E+00   1.367311E+00   1.488163E+00   9.118997E-01   1.255626E+00   1.068129E+00   9.967721E-01   8.542781E-01   1.471885E+00   8.890500E-01   7.739360E-01   9.432389E-01   1.138322E+00   1.069516E+00   1.076005E+00   9.072986E-01   6.303431E-01   6.602319E-01   1.123340E+00   1.009501E+00   1.014354E+00   9.195389E-01   8.358454E-01   5.058371E-01   3.952627E-01   5.666754E-01   8.882618E-01   1.381598E+00   2.057454E+00   1.245750E+00   1.031441E+00   1.919436E+00   1.963950E+00   1.208405E+00   1.156229E+00   1.728968E+00   1.691494E+00   1.845478E+00   2.537449E+00   2.824226E+00   2.898475E+00   1.752564E+00   1.533276E+00   1.658401E+00   1.960453E+00   2.036742E+00   2.546896E+00   3.302025E+00   3.964249E+00   1.860976E+00
   9.268422E-01   7.826815E-01   9.327127E-01   8.550230E-01   7.319703E-01   7.156057E-01   7.633270E-01   5.257819E-01   4.126854E-01   4.043275E-01   5.925266E-01   4.234000E-01   8.521502E-01   9.652154E-01   9.693521E-01   6.679899E-01   7.408559E-01   5.928099E-01   9.803083E-01   1.325860E+00   1.063239E+00   6.513526E-01   6.784135E-01   6.781174E-01   4.396751E-01   8.095897E-01   9.467143E-01   1.204045E+00   1.863980E+00   1.371560E+00   1.158095E+00   1.162832E+00   1.614333E+00   1.438559E+00   1.659226E+00   1.963501E+00   3.098100E+00   3.303481E+00   4.030581E+00   2.771128E+00   3.618057E+00   3.931093E+00   2.318463E+00   1.738493E+00   2.442097E+00   2.495594E+00   2.380117E+00   2.156147E+00   3.392557E+00   2.083192E+00
   1.006409E+00   1.064608E+00   8.401956E-01   6.058024E-01   7.337758E-01   1.073209E+00   4.580266E-01   4.883977E-01   4.452962E-01   4.821444E-01   3.798314E-01   3.938738E-01   3.021334E-01   5.039793E-01   6.314412E-01   7.865858E-01   5.775775E-01   8.690503E-01   1.004689E+00   1.138901E+00   9.535798E-01   7.553948E-01   4.469350E-01   6.801520E-01   1.246437E+00   1.143206E+00   1.035939E+00   1.077418E+00   1.612054E+00   1.471141E+00   1.147171E+00   1.111818E+00   1.840785E+00   1.992975E+00   3.005464E+00   3.570417E+00   3.279520E+00   4.108311E+00   3.953011E+00   4.560501E+00   5.503751E+00   5.020188E+00   3.699282E+00   2.334212E+00   2.350243E+00   2.046564E+00   1.724228E+00   1.627430E+00   2.452450E+00   2.660355E+00
   1.658010E+00   1.086698E+00   1.033849E+00   5.005447E-01   4.590425E-01   6.164336E-01   4.907841E-01   4.362687E-01   4.546359E-01   2.813027E-01   1.761635E-01   2.144503E-01   2.575157E-01   4.426352E-01   4.647747E-01   5.178810E-01   1.054420E+00   1.585714E+00   7.759524E-01   4.627441E-01   5.959086E-01   4.770002E-01   4.339037E-01   7.645095E-01   9.816745E-01   9.063525E-01   1.044297E+00   1.245387E+00   2.117759E+00   1.583142E+00   1.420119E+00   2.047131E+00   2.008868E+00   2.268028E+00   4.666700E+00   3.819081E+00   4.966806E+00   2.977074E+00   3.673543E+00   4.631343E+00   3.171971E+00   4.415014E+00   5.922413E+00   3.185337E+00   2.986182E+00   3.304251E+00   3.044955E+00   1.609599E+00   2.309933E+00   1.624509E+00
   1.504125E+00   1.570423E+00   1.320468E+00   3.360843E-01   9.097275E-01   4.087689E-01   3.347120E-01   3.246451E-01   1.976400E-01   1.203998E-01   1.066199E-01   1.593394E-01   2.599539E-01   4.482022E-01   5.974134E-01   4.712025E-01   7.864559E-01   1.490583E+00   1.006122E+00   6.412272E-01   3.903650E-01   3.636100E-01   4.766513E-01   4.270599E-01   9.241195E-01   1.044463E+00   1.047112E+00   1.445587E+00   1.992708E+00   2.024076E+00   1.953527E+00   2.228333E+00   3.356582E+00   4.034340E+00   3.650796E+00   4.742790E+00   4.491751E+00   3.427349E+00   3.235041E+00   3.206517E+00   3.944928E+00   4.381765E+00   4.219512E+00   3.197574E+00   2.403981E+00   2.869467E+00   2.692155E+00   2.679799E+00   1.788171E+00   1.545605E+00
   1.221083E+00   9.992793E-01   6.620638E-01   5.916711E-01   4.253663E-01   4.377900E-01   2.312337E-01   1.704250E-01   2.339944E-01   1.615472E-01   1.368581E-01   1.409868E-01   2.201291E-01   3.425438E-01   5.652899E-01   5.855147E-01   5.269926E-01   6.854020E-01   8.166199E-01   6.965272E-01   5.256749E-01   6.411172E-01   6.172231E-01   3.997093E-01   6.299021E-01   1.048796E+00   9.722185E-01   1.427601E+00   2.601273E+00   1.340395E+00   1.481794E+00   2.440938E+00   1.675815E+00   3.157094E+00   3.865130E+00   3.851297E+00   4.062612E+00   3.689432E+00   4.817788E+00   4.039475E+00   6.494688E+00   3.657443E+00   4.122176E+00   3.230602E+00   2.023271E+00   2.102075E+00   2.137091E+00   2.063783E+00   2.838199E+00   1.493624E+00
   1.712846E+00   7.869641E-01   4.927927E-01   2.789604E-01   2.649809E-01   2.918535E-01   2.115438E-01   1.499561E-01   2.025898E-01   2.265218E-01   1.409841E-01   1.235799E-01   1.556779E-01   3.127411E-01   1.021598E+00   6.799397E-01   4.645784E-01   5.738961E-01   3.936839E-01   8.001930E-01   4.228241E-01   3.531812E-01   4.670349E-01   4.727064E-01   7.023191E-01   8.737861E-01   1.062621E+00   1.352911E+00   1.968792E+00   1.515609E+00   1.199831E+00   1.738707E+00   1.685191E+00   2.373644E+00   2.634435E+00   3.722692E+00   4.147772E+00   3.891594E+00   3.238259E+00   2.759883E+00   1.748335E+00   2.242994E+00   3.062864E+00   3.252373E+00   3.161158E+00   2.089164E+00   2.439234E+00   2.337137E+00   1.793737E+00   1.730470E+00
   2.339472E+00   8.340468E-01   7.390506E-01   4.510219E-01   2.558512E-01   2.540367E-01   2.841310E-01   3.047727E-01   1.950337E-01   9.330453E-02   1.457367E-01   1.220886E-01   1.976849E-01   2.913448E-01   4.009276E-01   5.373693E-01   6.191425E-01   3.926758E-01   6.354557E-01   3.937133E-01   6.519300E-01   5.409473E-01   4.164306E-01   7.414476E-01   6.692125E-01   6.780644E-01   1.070939E+00   1.431366E+00   1.587919E+00   1.221182E+00   1.203434E+00   1.595433E+00   1.917099E+00   1.320314E+00   1.578261E+00   2.478948E+00   3.025249E+00   2.144415E+00   2.776281E+00   1.967961E+00   1.430455E+00   1.358030E+00   1.640489E+00   1.486783E+00   2.243183E+00   2.503130E+00   2.474447E+00   2.107200E+00   1.250627E+00   2.094771E+00
   2.608211E+00   1.657561E+00   7.621246E-01   5.002555E-01   3.962946E-01   4.001623E-01   3.197520E-01   3.820091E-01   2.623228E-01   2.065170E-01   1.201761E-01   2.018756E-01   2.626175E-01   4.552120E-01   5.024809E-01   2.678216E-01   3.990723E-01   3.560603E-01   5.177565E-01   4.999864E-01   8.139731E-01   7.524639E-01   6.744784E-01   7.100265E-01   8.282700E-01   8.919637E-01   9.355594E-01   1.672647E+00   1.297711E+00   1.505508E+00   7.154241E-01   1.410321E+00   2.225695E+00   2.459799E+00   1.701964E+00   2.196995E+00   2.170756E+00   2.351168E+00   1.844359E+00   1.495832E+00   1.534307E+00   1.545107E+00   1.360253E+00   1.408730E+00   1.930098E+00   2.534951E+00   2.959434E+00   1.332656E+00   1.655407E+00   2.325496E+00
   1.200286E+00   1.663594E+00   1.236816E+00   5.359092E-01   3.647425E-01   3.482645E-01   2.838190E-01   3.611655E-01   4.127575E-01   1.686780E-01   9.560999E-02   1.382822E-01   1.952767E-01   3.060108E-01   3.462176E-01   2.389824E-01   2.880800E-01   3.903869E-01   4.418709E-01   7.182600E-01   6.705550E-01   6.810599E-01   5.691974E-01   7.837163E-01   9.411445E-01   7.034535E-01   6.299687E-01   7.097138E-01   8.597720E-01   8.837968E-01   9.090860E-01   1.388139E+00   2.381073E+00   3.521662E+00   2.626971E+00   1.554817E+00   1.555865E+00   2.251379E+00   2.817974E+00   1.799348E+00   1.555963E+00   1.031657E+00   1.805018E+00   4.857048E+00   2.792051E+00   2.234498E+00   1.910106E+00   1.369680E+00   1.273592E+00   2.275869E+00
   1.138188E+00   1.008543E+00   5.284759E-01   3.414139E-01   2.974372E-01   3.178548E-01   4.807756E-01   3.509257E-01   3.860961E-01   1.787305E-01   1.645346E-01   1.081445E-01   1.412251E-01   2.412888E-01   2.845011E-01   2.510795E-01   3.222222E-01   4.325614E-01   3.312420E-01   7.608516E-01   7.698724E-01   4.642138E-01   5.171126E-01   7.491618E-01   8.761109E-01   4.828700E-01   7.468280E-01   6.898249E-01   6.982005E-01   6.286653E-01   6.634746E-01   1.186213E+00   2.387725E+00   2.100654E+00   1.808688E+00   1.309895E+00   1.581061E+00   1.784362E+00   2.181554E+00   1.614551E+00   1.740923E+00   2.037722E+00   1.646494E+00   4.126878E+00   2.623806E+00   2.173118E+00   1.452208E+00   1.004723E+00   8.143165E-01   1.710082E+00
   6.186531E-01   4.594579E-01   5.156665E-01   3.573216E-01   4.537373E-01   3.884242E-01   6.311696E-01   4.802205E-01   3.239396E-01   2.562533E-01   2.389619E-01   1.630827E-01   2.350518E-01   1.683904E-01   2.009291E-01   2.466603E-01   2.941659E-01   3.511475E-01   4.347538E-01   6.210969E-01   4.613524E-01   7.080557E-01   7.309149E-01   9.255425E-01   1.273933E+00   5.935737E-01   4.765772E-01   5.522702E-01   8.313003E-01   8.264390E-01   7.620193E-01   1.644486E+00   2.427751E+00   2.974723E+00   2.514156E+00   1.273788E+00   1.897722E+00   1.410723E+00   2.812071E+00   3.418679E+00   2.804970E+00   2.438527E+00   2.395033E+00   3.137039E+00   2.947914E+00   1.841037E+00   2.419167E+00   9.946102E-01   1.649383E+00   1.696797E+00
   4.265436E-01   3.683806E-01   2.985849E-01   5.456181E-01   4.787648E-01   4.055986E-01   7.995033E-01   7.672138E-01   5.553866E-01   4.580449E-01   2.327219E-01   1.447003E-01   1.076591E-01   1.192511E-01   2.099687E-01   2.730242E-01   2.601795E-01   2.658049E-01   3.886054E-01   6.104528E-01   7.489709E-01   7.793820E-01   8.458734E-01   1.113024E+00   1.276754E+00   8.369508E-01   5.640332E-01   7.318895E-01   1.084410E+00   1.146395E+00   8.419399E-01   1.563170E+00   2.087582E+00   2.047517E+00   2.912661E+00   1.623899E+00   1.735589E+00   2.608196E+00   3.959321E+00   4.076157E+00   2.376031E+00   2.321255E+00   1.740091E+00   2.656129E+00   3.190475E+00   2.270632E+00   1.921952E+00   1.152715E+00   7.005066E-01   1.343329E+00
   3.076756E-01   3.862825E-01   2.953752E-01   6.323277E-01   5.372644E-01   7.635972E-01   1.169371E+00   1.100703E+00   1.115239E+00   5.390949E-01   3.734589E-01   2.975020E-01   1.960009E-01   1.455718E-01   2.360339E-01   1.849187E-01   2.960841E-01   2.906813E-01   3.810830E-01   6.833472E-01   7.818518E-01   9.464570E-01   1.380782E+00   9.316904E-01   9.851695E-01   2.093242E+00   1.216032E+00   1.252184E+00   9.471639E-01   1.025811E+00   7.749839E-01   9.858590E-01   1.399503E+00   1.729037E+00   2.245208E+00   1.483335E+00   1.769851E+00   3.469379E+00   2.840121E+00   3.108899E+00   3.122640E+00   2.175248E+00   2.006555E+00   1.497247E+00   2.715679E+00   2.475020E+00   1.347720E+00   5.366278E-01   8.330391E-01   1.130645E+00
   5.190109E-01   3.488470E-01   4.103562E-01   4.528150E-01   7.229750E-01   8.569986E-01   9.286774E-01   1.258190E+00   1.337585E+00   1.050202E+00   6.000304E-01   3.957665E-01   3.640128E-01   2.961560E-01   3.327516E-01   3.001728E-01   4.727755E-01   5.815027E-01   6.870964E-01   6.419726E-01   1.323438E+00   1.137089E+00   1.600234E+00   1.122026E+00   1.154655E+00   8.304726E-01   1.210797E+00   1.288791E+00   1.438990E+00   1.066464E+00   1.165849E+00   2.077636E+00   1.421093E+00   9.538838E-01   1.069023E+00   1.598719E+00   1.722935E+00   3.143794E+00   3.283288E+00   3.221731E+00   1.910910E+00   2.312458E+00   2.390218E+00   2.470375E+00   2.898339E+00   1.983855E+00   8.683322E-01   6.386374E-01   4.098127E-01   7.088537E-01
   4.836220E-01   5.215106E-01   5.748982E-01   7.473246E-01   8.860874E-01   1.198150E+00   1.304731E+00   8.774070E-01   9.706972E-01   1.333313E+00   7.307037E-01   6.756347E-01   5.817981E-01   3.728384E-01   3.053270E-01   4.563288E-01   6.685533E-01   9.694161E-01   9.959797E-01   7.807811E-01   1.062603E+00   6.374593E-01   7.345860E-01   8.732589E-01   1.408552E+00   1.200404E+00   9.594870E-01   6.651987E-01   9.860497E-01   1.430392E+00   1.762736E+00   1.665037E+00   1.652982E+00   1.567751E+00   1.777827E+00   2.766246E+00   3.158869E+00   2.748335E+00   2.625378E+00   2.246558E+00   1.905091E+00   2.751784E+00   3.047597E+00   2.776539E+00   1.769802E+00   1.921836E+00   9.406477E-01   8.279802E-01   7.256048E-01   4.722969E-01
   6.850570E-01   7.411256E-01   6.901765E-01   6.843511E-01   1.121400E+00   8.433796E-01   9.444858E-01   7.897726E-01   1.030982E+00   9.124558E-01   7.178669E-01   5.980436E-01   6.973612E-01   7.395836E-01   5.420984E-01   8.901324E-01   8.671592E-01   1.363865E+00   7.543561E-01   7.901911E-01   9.265672E-01   5.419447E-01   9.593604E-01   1.011106E+00   1.313725E+00   1.083818E+00   1.055274E+00   9.582634E-01   1.627805E+00   1.805481E+00   2.322918E+00   2.122196E+00   1.852728E+00   3.283081E+00   3.081653E+00   2.795319E+00   3.034504E+00   2.840525E+00   2.422298E+00   2.067585E+00   1.749634E+00   2.174568E+00   1.968574E+00   1.336433E+00   2.096114E+00   1.316060E+00   1.091037E+00   1.329483E+00   1.024311E+00   9.036660E-01
   9.254498E-01   6.695474E-01   8.666267E-01   6.166027E-01   1.110649E+00   8.377564E-01   8.394551E-01   7.528402E-01   5.193318E-01   4.351212E-01   5.055022E-01   5.672602E-01   5.876199E-01   7.752413E-01   8.528320E-01   1.173094E+00   9.748819E-01   8.396562E-01   7.953354E-01   1.295442E+00   9.084395E-01   6.010628E-01   9.913455E-01   8.591163E-01   1.103436E+00   1.440238E+00   1.294613E+00   1.094874E+00   1.267851E+00   2.093187E+00   1.489505E+00   2.477114E+00   2.320225E+00   2.472063E+00   2.617463E+00   1.803471E+00   2.186925E+00   2.170015E+00   1.299269E+00   1.485363E+00   1.543725E+00   1.676568E+00   1.749696E+00   1.243446E+00   1.994147E+00   2.098264E+00   2.122037E+00   1.224906E+00   7.073374E-01   7.705432E-01
   8.700027E-01   7.963277E-01   1.156381E+00   1.199532E+00   9.444190E-01   8.512692E-01   8.161632E-01   7.230650E-01   5.624325E-01   5.284303E-01   7.222259E-01   3.361641E-01   8.742095E-01   9.903221E-01   9.759599E-01   8.772491E-01   7.110952E-01   7.702047E-01   1.274122E+00   1.503912E+00   8.460408E-01   1.217792E+00   9.038624E-01   9.332401E-01   9.159528E-01   1.311445E+00   1.700828E+00   2.275411E+00   2.776704E+00   2.493564E+00   2.950476E+00   1.975717E+00   2.365395E+00   3.698895E+00   3.742514E+00   3.555219E+00   2.583936E+00   1.591252E+00   1.323543E+00   1.539761E+00   1.868957E+00   1.844352E+00   1.624994E+00   1.124486E+00   1.282197E+00   1.424942E+00   7.527066E-01   1.019995E+00   6.389564E-01   4.262513E-01
   9.261012E-01   6.754214E-01   9.630267E-01   1.220489E+00   1.039067E+00   7.218087E-01   4.175777E-01   4.662566E-01   7.776332E-01   4.091563E-01   4.467477E-01   4.598999E-01   4.660421E-01   6.690690E-01   8.858348E-01   5.963963E-01   9.833226E-01   8.327963E-01   1.135814E+00   9.863189E-01   1.224254E+00   1.147706E+00   1.761383E+00   1.096101E+00   7.729656E-01   1.072508E+00   1.090703E+00   1.652414E+00   3.307540E+00   2.800336E+00   4.155546E+00   2.219158E+00   3.795743E+00   4.136491E+00   2.275054E+00   2.544647E+00   1.583025E+00   1.380247E+00   1.337125E+00   1.925053E+00   2.051913E+00   1.651449E+00   1.313321E+00   1.289430E+00   8.263433E-01   9.795660E-01   5.916141E-01   4.726774E-01   6.307361E-01   3.772268E-01
   2.502064E-01   3.972547E-01   9.105983E-01   8.833632E-01   1.331757E+00   5.652472E-01   4.399538E-01   5.922958E-01   4.947317E-01   4.970611E-01   6.316360E-01   5.912500E-01   3.766304E-01   4.551219E-01   5.203320E-01   4.892889E-01   5.583513E-01   5.642528E-01   6.274706E-01   9.104987E-01   1.673835E+00   1.164419E+00   1.579629E+00   9.476331E-01   8.743318E-01   1.042938E+00   8.119037E-01   1.524244E+00   2.355752E+00   3.487103E+00   2.729689E+00   1.422366E+00   2.330005E+00   2.705715E+00   2.782555E+00   1.728670E+00   1.182505E+00   1.595793E+00   1.088757E+00   1.462448E+00   1.320635E+00   1.139126E+00   1.642240E+00   1.132995E+00   8.718373E-01   7.938926E-01   4.760968E-01   4.370885E-01   2.374733E-01   3.605680E-01
   2.090017E-01   2.208564E-01   3.484477E-01   8.146836E-01   9.203321E-01   5.488209E-01   3.980384E-01   3.534382E-01   3.705223E-01   4.836904E-01   3.878464E-01   3.442622E-01   4.194360E-01   4.773831E-01   4.940602E-01   5.284422E-01   3.718460E-01   4.630445E-01   8.717489E-01   1.104542E+00   1.904954E+00   1.355028E+00   1.177805E+00   6.024573E-01   9.499285E-01   6.946083E-01   6.017997E-01   1.325936E+00   2.210929E+00   2.305267E+00   1.802798E+00   1.556936E+00   1.327261E+00   2.340733E+00   1.796985E+00   1.888224E+00   1.126970E+00   1.142655E+00   1.232710E+00   1.569560E+00   7.050512E-01   6.265738E-01   9.775039E-01   1.781530E+00   1.115113E+00   8.915029E-01   7.712026E-01   4.313995E-01   4.215068E-01   3.685108E-01
   2.514924E-01   3.143919E-01   2.424814E-01   5.196475E-01   6.255288E-01   5.122882E-01   4.574065E-01   5.024438E-01   3.535126E-01   3.025956E-01   3.976952E-01   3.619882E-01   4.001780E-01   4.719542E-01   5.496573E-01   4.408831E-01   6.527066E-01   5.163532E-01   7.781098E-01   1.320993E+00   9.311996E-01   9.689193E-01   1.290564E+00   8.431807E-01   9.332189E-01   7.568966E-01   6.734692E-01   1.173557E+00   2.230501E+00   2.770667E+00   2.084056E+00   1.607323E+00   1.385155E+00   2.257634E+00   1.393021E+00   8.684065E-01   9.249094E-01   1.501461E+00   1.140981E+00   1.274279E+00   8.536506E-01   1.043670E+00   9.960411E-01   1.344380E+00   1.153462E+00   6.204939E-01   5.014666E-01   4.490472E-01   4.632118E-01   3.999820E-01
   5.652871E-01   6.542026E-01   3.626660E-01   5.442258E-01   2.621470E-01   2.734618E-01   2.984154E-01   4.385093E-01   3.707787E-01   2.984654E-01   2.595558E-01   3.616205E-01   5.657489E-01   5.419001E-01   6.003706E-01   5.513319E-01   5.541071E-01   5.601814E-01   5.003920E-01   7.018523E-01   4.884632E-01   7.316287E-01   8.657796E-01   1.227126E+00   4.892927E-01   3.934977E-01   9.748502E-01   1.782917E+00   1.853515E+00   1.852189E+00   2.270409E+00   2.164433E+00   1.416966E+00   7.693055E-01   1.147073E+00   1.359108E+00   1.061187E+00   1.384607E+00   8.507358E-01   6.731222E-01   5.814663E-01   4.637748E-01   4.442846E-01   5.505316E-01   5.266843E-01   4.462032E-01   3.039108E-01   5.029557E-01   4.873706E-01   3.833244E-01
   3.823764E-01   6.106499E-01   4.220732E-01   2.900489E-01   2.681713E-01   3.284704E-01   4.075517E-01   3.449023E-01   3.301993E-01   2.387041E-01   2.181671E-01   2.385266E-01   3.734502E-01   4.506404E-01   4.695837E-01   6.067786E-01   6.053810E-01   9.436870E-01   7.497973E-01   8.238592E-01   4.193819E-01   4.680611E-01   3.871053E-01   4.172419E-01   1.982591E-01   2.937651E-01   8.763297E-01   1.329846E+00   1.322124E+00   1.711045E+00   1.850579E+00   1.390460E+00   1.742791E+00   1.474278E+00   1.424417E+00   1.300496E+00   1.090783E+00   1.264856E+00   8.054916E-01   4.689874E-01   7.305330E-01   4.611734E-01   3.971499E-01   3.870753E-01   4.948379E-01   4.306707E-01   3.783532E-01   4.663002E-01   4.565811E-01   3.199243E-01
   4.488162E-01   5.970956E-01   6.438384E-01   4.256346E-01   2.098135E-01   2.986264E-01   2.699108E-01   3.038336E-01   3.162892E-01   1.933630E-01   1.867419E-01   3.912342E-01   3.888926E-01   4.502504E-01   3.249153E-01   3.226507E-01   4.483479E-01   6.093870E-01   5.745068E-01   4.069571E-01   2.731928E-01   2.808903E-01   4.104618E-01   2.619532E-01   3.454875E-01   3.635781E-01   9.627557E-01   9.891114E-01   1.102675E+00   1.654723E+00   1.346322E+00   1.306177E+00   1.601707E+00   1.339421E+00   1.852183E+00   1.659411E+00   1.153063E+00   9.425259E-01   5.732414E-01   4.323444E-01   3.571565E-01   5.938888E-01   5.897915E-01   5.318913E-01   6.100875E-01   3.712675E-01   3.758737E-01   3.597676E-01   3.132600E-01   2.780379E-01
   5.517181E-01   6.835029E-01   3.485610E-01   3.058155E-01   2.299853E-01   2.745361E-01   2.312533E-01   1.900834E-01   1.705908E-01   1.206165E-01   1.895580E-01   4.054599E-01   3.599534E-01   2.460545E-01   3.583040E-01   2.851388E-01   3.379473E-01   4.573521E-01   3.405575E-01   3.962686E-01   2.158256E-01   2.024854E-01   3.163800E-01   4.924684E-01   6.426362E-01   5.280414E-01   7.966551E-01   9.043768E-01   1.407891E+00   2.079587E+00   1.337517E+00   1.272582E+00   1.621001E+00   2.419944E+00   1.620318E+00   1.521341E+00   8.769924E-01   8.677193E-01   4.153579E-01   2.993882E-01   2.995991E-01   3.577731E-01   4.439553E-01   7.225683E-01   5.974302E-01   4.019055E-01   3.230818E-01   3.861418E-01   2.710470E-01   2.877363E-01
   5.072420E-01   6.352539E-01   8.347672E-01   4.931270E-01   5.077999E-01   2.425899E-01   1.964423E-01   1.709304E-01   1.497453E-01   1.270675E-01   2.092525E-01   2.198905E-01   3.206903E-01   5.386220E-01   4.788136E-01   3.696205E-01   3.491577E-01   4.308582E-01   4.703271E-01   5.523599E-01   3.011517E-01   3.081967E-01   4.072311E-01   7.301491E-01   6.880410E-01   5.155568E-01   9.069744E-01   8.251521E-01   1.777976E+00   1.542675E+00   2.364747E+00   1.257104E+00   1.110779E+00   1.647127E+00   1.590750E+00   8.595471E-01   6.080321E-01   6.412053E-01   5.346856E-01   3.596713E-01   4.147812E-01   3.577842E-01   3.183240E-01   4.959943E-01   4.378817E-01   3.166065E-01   3.102216E-01   3.334384E-01   1.746278E-01   2.798586E-01
   7.432951E-01   8.519130E-01   1.447781E+00   9.981971E-01   5.454904E-01   3.492303E-01   2.751561E-01   3.184122E-01   3.246444E-01   3.402633E-01   3.267049E-01   3.006137E-01   3.858363E-01   4.360318E-01   3.703215E-01   7.752696E-01   6.101629E-01   5.621822E-01   4.623848E-01   9.155986E-01   3.402513E-01   4.509169E-01   7.211281E-01   7.246143E-01   7.514784E-01   6.046933E-01   9.060079E-01   1.089248E+00   1.119521E+00   1.082457E+00   1.317045E+00   1.475422E+00   1.277295E+00   1.262398E+00   1.264394E+00   7.703676E-01   6.640670E-01   4.946360E-01   5.403139E-01   3.077556E-01   3.041549E-01   2.523029E-01   2.745242E-01   1.968955E-01   3.473950E-01   3.104994E-01   1.649311E-01   1.372219E-01   1.952157E-01   2.460884E-01
   1.024220E+00   1.174922E+00   7.494713E-01   1.441271E+00   8.863188E-01   3.533779E-01   3.959698E-01   3.060505E-01   5.290303E-01   4.799307E-01   4.039721E-01   4.951442E-01   3.141909E-01   2.312224E-01   3.165686E-01   6.873131E-01   6.263714E-01   6.523554E-01   3.843712E-01   6.038205E-01   5.222132E-01   6.807303E-01   9.145455E-01   1.013035E+00   9.675744E-01   1.167519E+00   1.223212E+00   1.237716E+00   9.319290E-01   6.587539E-01   8.686155E-01   1.328718E+00   1.143288E+00   1.099211E+00   1.320484E+00   6.669569E-01   9.418413E-01   1.055883E+00   6.198980E-01   2.758730E-01   1.950806E-01   1.873411E-01   1.946643E-01   1.834181E-01   2.138257E-01   1.902406E-01   1.591555E-01   1.475350E-01   1.252992E-01   2.466819E-01
   7.973448E-01   5.310823E-01   7.676102E-01   7.217897E-01   6.409100E-01   5.555715E-01   7.137583E-01   4.960204E-01   4.371505E-01   3.285137E-01   6.111282E-01   3.263852E-01   3.844378E-01   2.943530E-01   6.720703E-01   5.356837E-01   5.779011E-01   4.755802E-01   4.153259E-01   3.027862E-01   4.037420E-01   6.160175E-01   2.121555E+00   1.225573E+00   7.061957E-01   1.030086E+00   1.268066E+00   1.217749E+00   8.316792E-01   6.867926E-01   9.888361E-01   1.091428E+00   1.035593E+00   1.597245E+00   1.261545E+00   7.894274E-01   7.008628E-01   5.537484E-01   3.522773E-01   3.539567E-01   2.083198E-01   1.521280E-01   2.393444E-01   1.609099E-01   2.170743E-01   2.119132E-01   1.336206E-01   1.920760E-01   1.178188E-01   1.123263E-01
   6.975163E-01   6.318249E-01   6.440970E-01   5.273180E-01   8.093238E-01   9.648268E-01   7.049101E-01   6.519254E-01   4.802788E-01   4.234740E-01   3.280690E-01   5.785537E-01   6.146230E-01   1.003636E+00   1.240938E+00   8.665568E-01   5.168058E-01   4.831793E-01   4.862959E-01   3.136336E-01   7.372937E-01   1.040395E+00   9.166279E-01   1.119784E+00   1.189866E+00   8.393379E-01   1.237694E+00   1.398658E+00   1.279165E+00   1.103591E+00   8.483378E-01   7.912071E-01   1.091257E+00   9.891226E-01   7.333906E-01   6.464429E-01   8.236442E-01   3.316711E-01   4.906298E-01   2.970184E-01   3.171183E-01   2.458665E-01   3.052731E-01   2.726750E-01   1.902485E-01   1.339292E-01   2.026047E-01   1.550106E-01   1.615076E-01   1.216272E-01
   4.938982E-01   4.895564E-01   3.590426E-01   4.158113E-01   6.052204E-01   8.221108E-01   6.909954E-01   7.053421E-01   6.609190E-01   5.315676E-01   4.053991E-01   6.051229E-01   7.958046E-01   1.068056E+00   1.231692E+00   8.171876E-01   6.620444E-01   7.906168E-01   5.664471E-01   5.369403E-01   1.396913E+00   1.148098E+00   6.594124E-01   9.152952E-01   1.060227E+00   1.059542E+00   1.212145E+00   1.172678E+00   9.269068E-01   1.443389E+00   6.588984E-01   5.012035E-01   6.603506E-01   1.572659E+00   9.716304E-01   7.811747E-01   5.165066E-01   5.930176E-01   4.162172E-01   3.125061E-01   5.351421E-01   2.778344E-01   2.511272E-01   2.298880E-01   2.814431E-01   3.430587E-01   2.625983E-01   2.818340E-01   2.103794E-01   8.106398E-02
   3.751790E-01   5.948095E-01   6.333901E-01   1.069016E+00   8.664281E-01   9.203019E-01   1.051972E+00   8.631638E-01   8.192399E-01   6.556311E-01   4.559115E-01   7.615147E-01   7.349631E-01   9.275623E-01   6.519000E-01   6.510633E-01   1.211224E+00   9.319071E-01   6.461415E-01   8.257118E-01   8.418099E-01   9.230048E-01   8.238801E-01   1.647052E+00   1.315395E+00   1.376989E+00   1.186522E+00   8.732058E-01   1.069883E+00   6.564019E-01   8.239962E-01   9.203286E-01   1.199369E+00   1.290279E+00   9.320003E-01   4.120174E-01   5.191109E-01   5.350111E-01   4.204158E-01   3.547358E-01   3.921934E-01   4.994938E-01   3.979669E-01   2.769765E-01   2.404727E-01   3.695530E-01   4.157990E-01   3.612586E-01   2.453494E-01   1.184272E-01