# BAS6 package for  MODFLOW-NWT, generated by Flopy.
FREE
INTERNAL               1     (FREE) -1 #ibound_layer_0                
         1         1         1         1         1         1         1         1         1         1         1         1         1         1         1         1         1         1         1         1         1         1         1         1         1         1         1         1         1         1         1         1         1         1         1         1         1         1         1         1         1         1         1         1         1         1         1         1         1         1
         1         1         1         1         1         1         1         1         1         1         1         1         1         1         1         1         1         1         1         1         1         1         1         1         1         1         1         1         1         1         1         1         1         1         1         1         1         1         1         1         1         1         1         1         1         1         1         1         1         1
         1         1         1         1         1         1         1         1         1         1         1         1         1         1         1         1         1         1         1         1         1         1         1         1         1         1         1         1         1         1         1         1         1         1         1         1         1         1         1         1         1         1         1         1         1         1         1         1         1         1
         1         1         1         1         1         1         1         1         1         1         1         1         1         1         1         1         1         1         1         1         1         1         1         1         1         1         1         1         1         1         1         1         1         1         1         1         1         1         1         1         1         1         1         1         1         1         1         1         1         1
         1         1         1         1         1         1         1         1         1         1         1         1         1         1         1         1         1         1         1         1         1         1         1         1         1         1         1         1         1         1         1         1         1         1         1         1         1         1         1         1         1         1         1         1         1         1         1         1         1         1
         1         1         1         1         1         1         1         1         1         1         1         1         1         1         1         1         1         1         1         1         1         1         1         1         1         1         1         1         1         1         1         1         1         1         1         1         1         1         1         1         1         1         1         1         1         1         1         1         1         1
         1         1         1         1         1         1         1         1         1         1         1         1         1         1         1         1         1         1         1         1         1         1         1         1         1         1         1         1         1         1         1         1         1         1         1         1         1         1         1         1         1         1         1         1         1         1         1         1         1         1
         1         1         1         1         1         1         1         1         1         1         1         1         1         1         1         1         1         1         1         1         1         1         1         1         1         1         1         1         1         1         1         1         1         1         1         1         1         1         1         1         1         1         1         1         1         1         1         1         1         1
         1         1         1         1         1         1         1         1         1         1         1         1         1         1         1         1         1         1         1         1         1         1         1         1         1         1         1         1         1         1         1         1         1         1         1         1         1         1         1         1         1         1         1         1         1         1         1         1         1         1
         1         1         1         1         1         1         1         1         1         1         1         1         1         1         1         1         1         1         1         1         1         1         1         1         1         1         1         1         1         1         1         1         1         1         1         1         1         1         1         1         1         1         1         1         1         1         1         1         1         1
         1         1         1         1         1         1         1         1         1         1         1         1         1         1         1         1         1         1         1         1         1         1         1         1         1         1         1         1         1         1         1         1         1         1         1         1         1         1         1         1         1         1         1         1         1         1         1         1         1         1
         1         1         1         1         1         1         1         1         1         1         1         1         1         1         1         1         1         1         1         1         1         1         1         1         1         1         1         1         1         1         1         1         1         1         1         1         1         1         1         1         1         1         1         1         1         1         1         1         1         1
         1         1         1         1         1         1         1         1         1         1         1         1         1         1         1         1         1         1         1         1         1         1         1         1         1         1         1         1         1         1         1         1         1         1         1         1         1         1         1         1         1         1         1         1         1         1         1         1         1         1
         1         1         1         1         1         1         1         1         1         1         1         1         1         1         1         1         1         1         1         1         1         1         1         1         1         1         1         1         1         1         1         1         1         1         1         1         1         1         1         1         1         1         1         1         1         1         1         1         1         1
         1         1         1         1         1         1         1         1         1         1         1         1         1         1         1         1         1         1         1         1         1         1         1         1         1         1         1         1         1         1         1         1         1         1         1         1         1         1         1         1         1         1         1         1         1         1         1         1         1         1
         1         1         1         1         1         1         1         1         1         1         1         1         1         1         1         1         1         1         1         1         1         1         1         1         1         1         1         1         1         1         1         1         1         1         1         1         1         1         1         1         1         1         1         1         1         1         1         1         1         1
         1         1         1         1         1         1         1         1         1         1         1         1         1         1         1         1         1         1         1         1         1         1         1         1         1         1         1         1         1         1         1         1         1         1         1         1         1         1         1         1         1         1         1         1         1         1         1         1         1         1
         1         1         1         1         1         1         1         1         1         1         1         1         1         1         1         1         1         1         1         1         1         1         1         1         1         1         1         1         1         1         1         1         1         1         1         1         1         1         1         1         1         1         1         1         1         1         1         1         1         1
         1         1         1         1         1         1         1         1         1         1         1         1         1         1         1         1         1         1         1         1         1         1         1         1         1         1         1         1         1         1         1         1         1         1         1         1         1         1         1         1         1         1         1         1         1         1         1         1         1         1
         1         1         1         1         1         1         1         1         1         1         1         1         1         1         1         1         1         1         1         1         1         1         1         1         1         1         1         1         1         1         1         1         1         1         1         1         1         1         1         1         1         1         1         1         1         1         1         1         1         1
         1         1         1         1         1         1         1         1         1         1         1         1         1         1         1         1         1         1         1         1         1         1         1         1         1         1         1         1         1         1         1         1         1         1         1         1         1         1         1         1         1         1         1         1         1         1         1         1         1         1
         1         1         1         1         1         1         1         1         1         1         1         1         1         1         1         1         1         1         1         1         1         1         1         1         1         1         1         1         1         1         1         1         1         1         1         1         1         1         1         1         1         1         1         1         1         1         1         1         1         1
         1         1         1         1         1         1         1         1         1         1         1         1         1         1         1         1         1         1         1         1         1         1         1         1         1         1         1         1         1         1         1         1         1         1         1         1         1         1         1         1         1         1         1         1         1         1         1         1         1         1
         1         1         1         1         1         1         1         1         1         1         1         1         1         1         1         1         1         1         1         1         1         1         1         1         1         1         1         1         1         1         1         1         1         1         1         1         1         1         1         1         1         1         1         1         1         1         1         1         1         1
         1         1         1         1         1         1         1         1         1         1         1         1         1         1         1         1         1         1         1         1         1         1         1         1         1         1         1         1         1         1         1         1         1         1         1         1         1         1         1         1         1         1         1         1         1         1         1         1         1         1
         1         1         1         1         1         1         1         1         1         1         1         1         1         1         1         1         1         1         1         1         1         1         1         1         1         1         1         1         1         1         1         1         1         1         1         1         1         1         1         1         1         1         1         1         1         1         1         1         1         1
         1         1         1         1         1         1         1         1         1         1         1         1         1         1         1         1         1         1         1         1         1         1         1         1         1         1         1         1         1         1         1         1         1         1         1         1         1         1         1         1         1         1         1         1         1         1         1         1         1         1
         1         1         1         1         1         1         1         1         1         1         1         1         1         1         1         1         1         1         1         1         1         1         1         1         1         1         1         1         1         1         1         1         1         1         1         1         1         1         1         1         1         1         1         1         1         1         1         1         1         1
         1         1         1         1         1         1         1         1         1         1         1         1         1         1         1         1         1         1         1         1         1         1         1         1         1         1         1         1         1         1         1         1         1         1         1         1         1         1         1         1         1         1         1         1         1         1         1         1         1         1
         1         1         1         1         1         1         1         1         1         1         1         1         1         1         1         1         1         1         1         1         1         1         1         1         1         1         1         1         1         1         1         1         1         1         1         1         1         1         1         1         1         1         1         1         1         1         1         1         1         1
         1         1         1         1         1         1         1         1         1         1         1         1         1         1         1         1         1         1         1         1         1         1         1         1         1         1         1         1         1         1         1         1         1         1         1         1         1         1         1         1         1         1         1         1         1         1         1         1         1         1
         1         1         1         1         1         1         1         1         1         1         1         1         1         1         1         1         1         1         1         1         1         1         1         1         1         1         1         1         1         1         1         1         1         1         1         1         1         1         1         1         1         1         1         1         1         1         1         1         1         1
         1         1         1         1         1         1         1         1         1         1         1         1         1         1         1         1         1         1         1         1         1         1         1         1         1         1         1         1         1         1         1         1         1         1         1         1         1         1         1         1         1         1         1         1         1         1         1         1         1         1
         1         1         1         1         1         1         1         1         1         1         1         1         1         1         1         1         1         1         1         1         1         1         1         1         1         1         1         1         1         1         1         1         1         1         1         1         1         1         1         1         1         1         1         1         1         1         1         1         1         1
         1         1         1         1         1         1         1         1         1         1         1         1         1         1         1         1         1         1         1         1         1         1         1         1         1         1         1         1         1         1         1         1         1         1         1         1         1         1         1         1         1         1         1         1         1         1         1         1         1         1
         1         1         1         1         1         1         1         1         1         1         1         1         1         1         1         1         1         1         1         1         1         1         1         1         1         1         1         1         1         1         1         1         1         1         1         1         1         1         1         1         1         1         1         1         1         1         1         1         1         1
         1         1         1         1         1         1         1         1         1         1         1         1         1         1         1         1         1         1         1         1         1         1         1         1         1         1         1         1         1         1         1         1         1         1         1         1         1         1         1         1         1         1         1         1         1         1         1         1         1         1
         1         1         1         1         1         1         1         1         1         1         1         1         1         1         1         1         1         1         1         1         1         1         1         1         1         1         1         1         1         1         1         1         1         1         1         1         1         1         1         1         1         1         1         1         1         1         1         1         1         1
         1         1         1         1         1         1         1         1         1         1         1         1         1         1         1         1         1         1         1         1         1         1         1         1         1         1         1         1         1         1         1         1         1         1         1         1         1         1         1         1         1         1         1         1         1         1         1         1         1         1
         1         1         1         1         1         1         1         1         1         1         1         1         1         1         1         1         1         1         1         1         1         1         1         1         1         1         1         1         1         1         1         1         1         1         1         1         1         1         1         1         1         1         1         1         1         1         1         1         1         1
         1         1         1         1         1         1         1         1         1         1         1         1         1         1         1         1         1         1         1         1         1         1         1         1         1         1         1         1         1         1         1         1         1         1         1         1         1         1         1         1         1         1         1         1         1         1         1         1         1         1
         1         1         1         1         1         1         1         1         1         1         1         1         1         1         1         1         1         1         1         1         1         1         1         1         1         1         1         1         1         1         1         1         1         1         1         1         1         1         1         1         1         1         1         1         1         1         1         1         1         1
         1         1         1         1         1         1         1         1         1         1         1         1         1         1         1         1         1         1         1         1         1         1         1         1         1         1         1         1         1         1         1         1         1         1         1         1         1         1         1         1         1         1         1         1         1         1         1         1         1         1
         1         1         1         1         1         1         1         1         1         1         1         1         1         1         1         1         1         1         1         1         1         1         1         1         1         1         1         1         1         1         1         1         1         1         1         1         1         1         1         1         1         1         1         1         1         1         1         1         1         1
         1         1         1         1         1         1         1         1         1         1         1         1         1         1         1         1         1         1         1         1         1         1         1         1         1         1         1         1         1         1         1         1         1         1         1         1         1         1         1         1         1         1         1         1         1         1         1         1         1         1
         1         1         1         1         1         1         1         1         1         1         1         1         1         1         1         1         1         1         1         1         1         1         1         1         1         1         1         1         1         1         1         1         1         1         1         1         1         1         1         1         1         1         1         1         1         1         1         1         1         1
         1         1         1         1         1         1         1         1         1         1         1         1         1         1         1         1         1         1         1         1         1         1         1         1         1         1         1         1         1         1         1         1         1         1         1         1         1         1         1         1         1         1         1         1         1         1         1         1         1         1
         1         1         1         1         1         1         1         1         1         1         1         1         1         1         1         1         1         1         1         1         1         1         1         1         1         1         1         1         1         1         1         1         1         1         1         1         1         1         1         1         1         1         1         1         1         1         1         1         1         1
         1         1         1         1         1         1         1         1         1         1         1         1         1         1         1         1         1         1         1         1         1         1         1         1         1         1         1         1         1         1         1         1         1         1         1         1         1         1         1         1         1         1         1         1         1         1         1         1         1         1
         1         1         1         1         1         1         1         1         1         1         1         1         1         1         1         1         1         1         1         1         1         1         1         1         1         1         1         1         1         1         1         1         1         1         1         1         1         1         1         1         1         1         1         1         1         1         1         1         1         1
   -999.99
INTERNAL               1  (50E15.6) -1 #strt layer 1                  
   4.500117E+01   4.500143E+01   4.500181E+01   4.500231E+01   4.500282E+01   4.500361E+01   4.500307E+01   4.500344E+01   4.500350E+01   4.500360E+01   4.500333E+01   4.500230E+01   4.500042E+01   4.499760E+01   4.499519E+01   4.499440E+01   4.499343E+01   4.499252E+01   4.499184E+01   4.499086E+01   4.499044E+01   4.499043E+01   4.498999E+01   4.498979E+01   4.499086E+01   4.499016E+01   4.499135E+01   4.499255E+01   4.499348E+01   4.499445E+01   4.499567E+01   4.499680E+01   4.499703E+01   4.499741E+01   4.499809E+01   4.499878E+01   4.499917E+01   4.499948E+01   4.499963E+01   4.499995E+01   4.500049E+01   4.500113E+01   4.500144E+01   4.500139E+01   4.500123E+01   4.500120E+01   4.500094E+01   4.500079E+01   4.500044E+01   4.500009E+01
   4.500132E+01   4.500166E+01   4.500181E+01   4.500216E+01   4.500253E+01   4.500234E+01   4.500307E+01   4.500335E+01   4.500343E+01   4.500340E+01   4.500310E+01   4.500233E+01   4.499971E+01   4.499625E+01   4.499500E+01   4.499368E+01   4.499290E+01   4.499191E+01   4.499117E+01   4.499020E+01   4.498944E+01   4.498892E+01   4.498884E+01   4.498880E+01   4.498906E+01   4.498978E+01   4.499052E+01   4.499200E+01   4.499304E+01   4.499397E+01   4.499580E+01   4.499692E+01   4.499709E+01   4.499743E+01   4.499809E+01   4.499895E+01   4.499944E+01   4.499953E+01   4.499953E+01   4.500011E+01   4.500105E+01   4.500140E+01   4.500164E+01   4.500158E+01   4.500133E+01   4.500119E+01   4.500111E+01   4.500097E+01   4.500063E+01   4.500023E+01
   4.500150E+01   4.500172E+01   4.500162E+01   4.500181E+01   4.500113E+01   4.500219E+01   4.500303E+01   4.500339E+01   4.500312E+01   4.500270E+01   4.500231E+01   4.500030E+01   4.499692E+01   4.499453E+01   4.499176E+01   4.499195E+01   4.499119E+01   4.499044E+01   4.498981E+01   4.498883E+01   4.498688E+01   4.498668E+01   4.498663E+01   4.498788E+01   4.498812E+01   4.498792E+01   4.499016E+01   4.499182E+01   4.499329E+01   4.499469E+01   4.499614E+01   4.499739E+01   4.499790E+01   4.499818E+01   4.499862E+01   4.499923E+01   4.499949E+01   4.499972E+01   4.499968E+01   4.500031E+01   4.500157E+01   4.500173E+01   4.500190E+01   4.500174E+01   4.500152E+01   4.500137E+01   4.500108E+01   4.500113E+01   4.500098E+01   4.500055E+01
   4.500097E+01   4.500122E+01   4.500116E+01   4.500023E+01   4.500109E+01   4.500223E+01   4.500304E+01   4.500301E+01   4.500275E+01   4.500152E+01   4.500002E+01   4.499770E+01   4.499457E+01   4.499158E+01   4.498962E+01   4.498785E+01   4.498686E+01   4.498633E+01   4.498645E+01   4.498485E+01   4.498113E+01   4.498134E+01   4.498151E+01   4.498203E+01   4.498578E+01   4.498396E+01   4.498687E+01   4.498943E+01   4.498999E+01   4.499277E+01   4.499491E+01   4.499605E+01   4.499841E+01   4.499971E+01   4.499972E+01   4.499976E+01   4.500012E+01   4.500000E+01   4.500018E+01   4.500072E+01   4.500201E+01   4.500237E+01   4.500235E+01   4.500203E+01   4.500172E+01   4.500158E+01   4.500135E+01   4.500141E+01   4.500173E+01   4.500175E+01
   4.499979E+01   4.499994E+01   4.499909E+01   4.499974E+01   4.500120E+01   4.500201E+01   4.500259E+01   4.500267E+01   4.500155E+01   4.499958E+01   4.499772E+01   4.499477E+01   4.499099E+01   4.498787E+01   4.498565E+01   4.498382E+01   4.498064E+01   4.497957E+01   4.498000E+01   4.497710E+01   4.496677E+01   4.496527E+01   4.496338E+01   4.496912E+01   4.497854E+01   4.496885E+01   4.497325E+01   4.497647E+01   4.497857E+01   4.498638E+01   4.499281E+01   4.499372E+01   4.499783E+01   4.499963E+01   4.500089E+01   4.500070E+01   4.500097E+01   4.500071E+01   4.500096E+01   4.500225E+01   4.500284E+01   4.500308E+01   4.500306E+01   4.500270E+01   4.500251E+01   4.500226E+01   4.500184E+01   4.500211E+01   4.500262E+01   4.500264E+01
   4.499842E+01   4.499796E+01   4.499701E+01   4.499837E+01   4.499984E+01   4.500095E+01   4.500156E+01   4.500123E+01   4.499962E+01   4.499722E+01   4.499459E+01   4.499129E+01   4.498804E+01   4.498318E+01   4.497982E+01   4.497661E+01   4.497235E+01   4.497123E+01   4.496992E+01   4.495954E+01   4.494550E+01   4.494373E+01   4.494899E+01   4.495032E+01   4.495102E+01   4.494525E+01   4.494671E+01   4.495499E+01   4.496409E+01   4.497416E+01   4.498537E+01   4.499075E+01   4.499399E+01   4.499781E+01   4.500148E+01   4.500205E+01   4.500038E+01   4.500023E+01   4.500010E+01   4.500126E+01   4.500268E+01   4.500281E+01   4.500379E+01   4.500369E+01   4.500372E+01   4.500333E+01   4.500288E+01   4.500289E+01   4.500292E+01   4.500297E+01