# BAS6 package for  MODFLOW-NWT, generated by Flopy.
FREE
INTERNAL               1     (FREE) -1 #ibound_layer_0                
         1         1         1         1         1         1         1         1         1         1         1         1         1         1         1         1         1         1         1         1         1         1         1         1         1         1         1         1         1         1         1         1         1         1         1         1         1         1         1         1         1         1         1         1         1         1         1         1         1         1
         1         1         1         1         1         1         1         1         1         1         1         1         1         1         1         1         1         1         1         1         1         1         1         1         1         1         1         1         1         1         1         1         1         1         1         1         1         1         1         1         1         1         1         1         1         1         1         1         1         1
         1         1         1         1         1         1         1         1         1         1         1         1         1         1         1         1         1         1         1         1         1         1         1         1         1         1         1         1         1         1         1         1         1         1         1         1         1         1         1         1         1         1         1         1         1         1         1         1         1         1
         1         1         1         1         1         1         1         1         1         1         1         1         1         1         1         1         1         1         1         1         1         1         1         1         1         1         1         1         1         1         1         1         1         1         1         1         1         1         1         1         1         1         1         1         1         1         1         1         1         1
         1         1         1         1         1         1         1         1         1         1         1         1         1         1         1         1         1         1         1         1         1         1         1         1         1         1         1         1         1         1         1         1         1         1         1         1         1         1         1         1         1         1         1         1         1         1         1         1         1         1
         1         1         1         1         1         1         1         1         1         1         1         1         1         1         1         1         1         1         1         1         1         1         1         1         1         1         1         1         1         1         1         1         1         1         1         1         1         1         1         1         1         1         1         1         1         1         1         1         1         1
         1         1         1         1         1         1         1         1         1         1         1         1         1         1         1         1         1         1         1         1         1         1         1         1         1         1         1         1         1         1         1         1         1         1         1         1         1         1         1         1         1         1         1         1         1         1         1         1         1         1
         1         1         1         1         1         1         1         1         1         1         1         1         1         1         1         1         1         1         1         1         1         1         1         1         1         1         1         1         1         1         1         1         1         1         1         1         1         1         1         1         1         1         1         1         1         1         1         1         1         1
         1         1         1         1         1         1         1         1         1         1         1         1         1         1         1         1         1         1         1         1         1         1         1         1         1         1         1         1         1         1         1         1         1         1         1         1         1         1         1         1         1         1         1         1         1         1         1         1         1         1
         1         1         1         1         1         1         1         1         1         1         1         1         1         1         1         1         1         1         1         1         1         1         1         1         1         1         1         1         1         1         1         1         1         1         1         1         1         1         1         1         1         1         1         1         1         1         1         1         1         1
         1         1         1         1         1         1         1         1         1         1         1         1         1         1         1         1         1         1         1         1         1         1         1         1         1         1         1         1         1         1         1         1         1         1         1         1         1         1         1         1         1         1         1         1         1         1         1         1         1         1
         1         1         1         1         1         1         1         1         1         1         1         1         1         1         1         1         1         1         1         1         1         1         1         1         1         1         1         1         1         1         1         1         1         1         1         1         1         1         1         1         1         1         1         1         1         1         1         1         1         1
         1         1         1         1         1         1         1         1         1         1         1         1         1         1         1         1         1         1         1         1         1         1         1         1         1         1         1         1         1         1         1         1         1         1         1         1         1         1         1         1         1         1         1         1         1         1         1         1         1         1
         1         1         1         1         1         1         1         1         1         1         1         1         1         1         1         1         1         1         1         1         1         1         1         1         1         1         1         1         1         1         1         1         1         1         1         1         1         1         1         1         1         1         1         1         1         1         1         1         1         1
         1         1         1         1         1         1         1         1         1         1         1         1         1         1         1         1         1         1         1         1         1         1         1         1         1         1         1         1         1         1         1         1         1         1         1         1         1         1         1         1         1         1         1         1         1         1         1         1         1         1
         1         1         1         1         1         1         1         1         1         1         1         1         1         1         1         1         1         1         1         1         1         1         1         1         1         1         1         1         1         1         1         1         1         1         1         1         1         1         1         1         1         1         1         1         1         1         1         1         1         1
         1         1         1         1         1         1         1         1         1         1         1         1         1         1         1         1         1         1         1         1         1         1         1         1         1         1         1         1         1         1         1         1         1         1         1         1         1         1         1         1         1         1         1         1         1         1         1         1         1         1
         1         1         1         1         1         1         1         1         1         1         1         1         1         1         1         1         1         1         1         1         1         1         1         1         1         1         1         1         1         1         1         1         1         1         1         1         1         1         1         1         1         1         1         1         1         1         1         1         1         1
         1         1         1         1         1         1         1         1         1         1         1         1         1         1         1         1         1         1         1         1         1         1         1         1         1         1         1         1         1         1         1         1         1         1         1         1         1         1         1         1         1         1         1         1         1         1         1         1         1         1
         1         1         1         1         1         1         1         1         1         1         1         1         1         1         1         1         1         1         1         1         1         1         1         1         1         1         1         1         1         1         1         1         1         1         1         1         1         1         1         1         1         1         1         1         1         1         1         1         1         1
         1         1         1         1         1         1         1         1         1         1         1         1         1         1         1         1         1         1         1         1         1         1         1         1         1         1         1         1         1         1         1         1         1         1         1         1         1         1         1         1         1         1         1         1         1         1         1         1         1         1
         1         1         1         1         1         1         1         1         1         1         1         1         1         1         1         1         1         1         1         1         1         1         1         1         1         1         1         1         1         1         1         1         1         1         1         1         1         1         1         1         1         1         1         1         1         1         1         1         1         1
         1         1         1         1         1         1         1         1         1         1         1         1         1         1         1         1         1         1         1         1         1         1         1         1         1         1         1         1         1         1         1         1         1         1         1         1         1         1         1         1         1         1         1         1         1         1         1         1         1         1
         1         1         1         1         1         1         1         1         1         1         1         1         1         1         1         1         1         1         1         1         1         1         1         1         1         1         1         1         1         1         1         1         1         1         1         1         1         1         1         1         1         1         1         1         1         1         1         1         1         1
         1         1         1         1         1         1         1         1         1         1         1         1         1         1         1         1         1         1         1         1         1         1         1         1         1         1         1         1         1         1         1         1         1         1         1         1         1         1         1         1         1         1         1         1         1         1         1         1         1         1
         1         1         1         1         1         1         1         1         1         1         1         1         1         1         1         1         1         1         1         1         1         1         1         1         1         1         1         1         1         1         1         1         1         1         1         1         1         1         1         1         1         1         1         1         1         1         1         1         1         1
         1         1         1         1         1         1         1         1         1         1         1         1         1         1         1         1         1         1         1         1         1         1         1         1         1         1         1         1         1         1         1         1         1         1         1         1         1         1         1         1         1         1         1         1         1         1         1         1         1         1
         1         1         1         1         1         1         1         1         1         1         1         1         1         1         1         1         1         1         1         1         1         1         1         1         1         1         1         1         1         1         1         1         1         1         1         1         1         1         1         1         1         1         1         1         1         1         1         1         1         1
         1         1         1         1         1         1         1         1         1         1         1         1         1         1         1         1         1         1         1         1         1         1         1         1         1         1         1         1         1         1         1         1         1         1         1         1         1         1         1         1         1         1         1         1         1         1         1         1         1         1
         1         1         1         1         1         1         1         1         1         1         1         1         1         1         1         1         1         1         1         1         1         1         1         1         1         1         1         1         1         1         1         1         1         1         1         1         1         1         1         1         1         1         1         1         1         1         1         1         1         1
         1         1         1         1         1         1         1         1         1         1         1         1         1         1         1         1         1         1         1         1         1         1         1         1         1         1         1         1         1         1         1         1         1         1         1         1         1         1         1         1         1         1         1         1         1         1         1         1         1         1
         1         1         1         1         1         1         1         1         1         1         1         1         1         1         1         1         1         1         1         1         1         1         1         1         1         1         1         1         1         1         1         1         1         1         1         1         1         1         1         1         1         1         1         1         1         1         1         1         1         1
         1         1         1         1         1         1         1         1         1         1         1         1         1         1         1         1         1         1         1         1         1         1         1         1         1         1         1         1         1         1         1         1         1         1         1         1         1         1         1         1         1         1         1         1         1         1         1         1         1         1
         1         1         1         1         1         1         1         1         1         1         1         1         1         1         1         1         1         1         1         1         1         1         1         1         1         1         1         1         1         1         1         1         1         1         1         1         1         1         1         1         1         1         1         1         1         1         1         1         1         1
         1         1         1         1         1         1         1         1         1         1         1         1         1         1         1         1         1         1         1         1         1         1         1         1         1         1         1         1         1         1         1         1         1         1         1         1         1         1         1         1         1         1         1         1         1         1         1         1         1         1
         1         1         1         1         1         1         1         1         1         1         1         1         1         1         1         1         1         1         1         1         1         1         1         1         1         1         1         1         1         1         1         1         1         1         1         1         1         1         1         1         1         1         1         1         1         1         1         1         1         1
         1         1         1         1         1         1         1         1         1         1         1         1         1         1         1         1         1         1         1         1         1         1         1         1         1         1         1         1         1         1         1         1         1         1         1         1         1         1         1         1         1         1         1         1         1         1         1         1         1         1
         1         1         1         1         1         1         1         1         1         1         1         1         1         1         1         1         1         1         1         1         1         1         1         1         1         1         1         1         1         1         1         1         1         1         1         1         1         1         1         1         1         1         1         1         1         1         1         1         1         1
         1         1         1         1         1         1         1         1         1         1         1         1         1         1         1         1         1         1         1         1         1         1         1         1         1         1         1         1         1         1         1         1         1         1         1         1         1         1         1         1         1         1         1         1         1         1         1         1         1         1
         1         1         1         1         1         1         1         1         1         1         1         1         1         1         1         1         1         1         1         1         1         1         1         1         1         1         1         1         1         1         1         1         1         1         1         1         1         1         1         1         1         1         1         1         1         1         1         1         1         1
         1         1         1         1         1         1         1         1         1         1         1         1         1         1         1         1         1         1         1         1         1         1         1         1         1         1         1         1         1         1         1         1         1         1         1         1         1         1         1         1         1         1         1         1         1         1         1         1         1         1
         1         1         1         1         1         1         1         1         1         1         1         1         1         1         1         1         1         1         1         1         1         1         1         1         1         1         1         1         1         1         1         1         1         1         1         1         1         1         1         1         1         1         1         1         1         1         1         1         1         1
         1         1         1         1         1         1         1         1         1         1         1         1         1         1         1         1         1         1         1         1         1         1         1         1         1         1         1         1         1         1         1         1         1         1         1         1         1         1         1         1         1         1         1         1         1         1         1         1         1         1
         1         1         1         1         1         1         1         1         1         1         1         1         1         1         1         1         1         1         1         1         1         1         1         1         1         1         1         1         1         1         1         1         1         1         1         1         1         1         1         1         1         1         1         1         1         1         1         1         1         1
         1         1         1         1         1         1         1         1         1         1         1         1         1         1         1         1         1         1         1         1         1         1         1         1         1         1         1         1         1         1         1         1         1         1         1         1         1         1         1         1         1         1         1         1         1         1         1         1         1         1
         1         1         1         1         1         1         1         1         1         1         1         1         1         1         1         1         1         1         1         1         1         1         1         1         1         1         1         1         1         1         1         1         1         1         1         1         1         1         1         1         1         1         1         1         1         1         1         1         1         1
         1         1         1         1         1         1         1         1         1         1         1         1         1         1         1         1         1         1         1         1         1         1         1         1         1         1         1         1         1         1         1         1         1         1         1         1         1         1         1         1         1         1         1         1         1         1         1         1         1         1
         1         1         1         1         1         1         1         1         1         1         1         1         1         1         1         1         1         1         1         1         1         1         1         1         1         1         1         1         1         1         1         1         1         1         1         1         1         1         1         1         1         1         1         1         1         1         1         1         1         1
         1         1         1         1         1         1         1         1         1         1         1         1         1         1         1         1         1         1         1         1         1         1         1         1         1         1         1         1         1         1         1         1         1         1         1         1         1         1         1         1         1         1         1         1         1         1         1         1         1         1
         1         1         1         1         1         1         1         1         1         1         1         1         1         1         1         1         1         1         1         1         1         1         1         1         1         1         1         1         1         1         1         1         1         1         1         1         1         1         1         1         1         1         1         1         1         1         1         1         1         1
   -999.99
INTERNAL               1  (50E15.6) -1 #strt layer 1                  
   4.500089E+01   4.500105E+01   4.500129E+01   4.500167E+01   4.500201E+01   4.500268E+01   4.500206E+01   4.500241E+01   4.500246E+01   4.500257E+01   4.500241E+01   4.500185E+01   4.500128E+01   4.500043E+01   4.499933E+01   4.499938E+01   4.499842E+01   4.499772E+01   4.499755E+01   4.499737E+01   4.499699E+01   4.499672E+01   4.499650E+01   4.499620E+01   4.499699E+01   4.499621E+01   4.499681E+01   4.499717E+01   4.499711E+01   4.499621E+01   4.499534E+01   4.499501E+01   4.499518E+01   4.499500E+01   4.499533E+01   4.499582E+01   4.499633E+01   4.499665E+01   4.499701E+01   4.499738E+01   4.499791E+01   4.499821E+01   4.499873E+01   4.499901E+01   4.499901E+01   4.499914E+01   4.499913E+01   4.499915E+01   4.499910E+01   4.499902E+01
   4.500093E+01   4.500112E+01   4.500128E+01   4.500144E+01   4.500201E+01   4.500159E+01   4.500220E+01   4.500240E+01   4.500237E+01   4.500247E+01   4.500233E+01   4.500171E+01   4.500061E+01   4.499968E+01   4.499928E+01   4.499840E+01   4.499809E+01   4.499783E+01   4.499763E+01   4.499734E+01   4.499679E+01   4.499659E+01   4.499617E+01   4.499615E+01   4.499631E+01   4.499653E+01   4.499654E+01   4.499657E+01   4.499627E+01   4.499558E+01   4.499458E+01   4.499412E+01   4.499449E+01   4.499445E+01   4.499496E+01   4.499570E+01   4.499612E+01   4.499664E+01   4.499706E+01   4.499747E+01   4.499799E+01   4.499821E+01   4.499873E+01   4.499898E+01   4.499903E+01   4.499911E+01   4.499909E+01   4.499908E+01   4.499908E+01   4.499898E+01
   4.500113E+01   4.500123E+01   4.500166E+01   4.500168E+01   4.500140E+01   4.500190E+01   4.500255E+01   4.500256E+01   4.500235E+01   4.500230E+01   4.500200E+01   4.500112E+01   4.500017E+01   4.499864E+01   4.499721E+01   4.499820E+01   4.499840E+01   4.499874E+01   4.499782E+01   4.499705E+01   4.499551E+01   4.499521E+01   4.499513E+01   4.499606E+01   4.499596E+01   4.499482E+01   4.499610E+01   4.499567E+01   4.499500E+01   4.499398E+01   4.499345E+01   4.499312E+01   4.499328E+01   4.499391E+01   4.499458E+01   4.499556E+01   4.499611E+01   4.499666E+01   4.499714E+01   4.499754E+01   4.499800E+01   4.499818E+01   4.499862E+01   4.499898E+01   4.499898E+01   4.499909E+01   4.499903E+01   4.499900E+01   4.499897E+01   4.499894E+01
   4.500230E+01   4.500218E+01   4.500259E+01   4.500170E+01   4.500228E+01   4.500290E+01   4.500315E+01   4.500306E+01   4.500299E+01   4.500259E+01   4.500167E+01   4.500070E+01   4.499975E+01   4.499748E+01   4.499634E+01   4.499661E+01   4.499751E+01   4.499736E+01   4.499711E+01   4.499533E+01   4.499097E+01   4.499054E+01   4.499027E+01   4.499027E+01   4.499376E+01   4.499039E+01   4.499242E+01   4.499305E+01   4.499116E+01   4.499114E+01   4.499016E+01   4.498986E+01   4.499076E+01   4.499297E+01   4.499409E+01   4.499500E+01   4.499603E+01   4.499693E+01   4.499745E+01   4.499771E+01   4.499802E+01   4.499828E+01   4.499868E+01   4.499890E+01   4.499895E+01   4.499889E+01   4.499882E+01   4.499881E+01   4.499861E+01   4.499845E+01
   4.500385E+01   4.500379E+01   4.500286E+01   4.500343E+01   4.500438E+01   4.500465E+01   4.500481E+01   4.500456E+01   4.500422E+01   4.500332E+01   4.500254E+01   4.500034E+01   4.499811E+01   4.499511E+01   4.499465E+01   4.499594E+01   4.499482E+01   4.499373E+01   4.499347E+01   4.499028E+01   4.497823E+01   4.497541E+01   4.497182E+01   4.497676E+01   4.498432E+01   4.497169E+01   4.497673E+01   4.497826E+01   4.497699E+01   4.498237E+01   4.498448E+01   4.498425E+01   4.498727E+01   4.499070E+01   4.499307E+01   4.499428E+01   4.499569E+01   4.499697E+01   4.499773E+01   4.499801E+01   4.499833E+01   4.499842E+01   4.499859E+01   4.499890E+01   4.499880E+01   4.499868E+01   4.499856E+01   4.499831E+01   4.499805E+01   4.499813E+01
   4.500526E+01   4.500589E+01   4.500463E+01   4.500442E+01   4.500560E+01   4.500636E+01   4.500705E+01   4.500695E+01   4.500667E+01   4.500520E+01   4.500385E+01   4.500043E+01   4.499773E+01   4.499378E+01   4.499362E+01   4.499223E+01   4.498867E+01   4.498788E+01   4.498542E+01   4.497334E+01   4.495737E+01   4.495416E+01   4.495786E+01   4.495497E+01   4.495073E+01   4.494390E+01   4.494615E+01   4.495308E+01   4.495691E+01   4.496367E+01   4.497182E+01   4.497683E+01   4.498061E+01   4.498613E+01   4.499090E+01   4.499358E+01   4.499441E+01   4.499540E+01   4.499549E+01   4.499595E+01   4.499722E+01   4.499707E+01   4.499847E+01   4.499865E+01   4.499851E+01   4.499841E+01   4.499827E+01   4.499802E+01   4.499793E+01   4.499804E+01