# UPW package for  MODFLOW-NWT, generated by Flopy.
        55    -1E+30         0         0 
         1
         0
   1.000000E+00
         0
         0
INTERNAL               1  (50E15.6) -1 #hk layer 1                    
   1.090120E+00   1.887580E+00   1.180994E+00   1.819766E-01   1.068008E-01   4.547579E-01   1.050193E-01   3.920234E-01   1.339156E+00   3.815622E-01   2.987022E-01   1.789614E-01   1.408599E-01   8.913346E-02   3.206731E-01   3.659555E-01   8.252121E-01   3.968325E-01   3.474988E-01   1.996816E-01   9.969131E-02   4.711918E-02   4.299976E-02   3.156658E-02   4.385493E-02   6.603569E-02   1.625118E-01   5.235085E-02   5.999821E-02   1.262034E-01   3.838937E-02   2.124682E-01   5.487696E-01   3.303654E-01   3.092316E-01   2.131375E+00   4.962817E+00   4.491891E+00   5.843594E+00   1.623659E+01   1.328317E+01   8.350589E+00   5.333315E+01   9.415200E+01   7.297241E+01   2.513290E+02   8.036143E+00   1.906915E+01   7.549362E+00   3.602418E+00
   3.850223E+00   2.240098E+00   1.626543E-01   3.017975E-01   2.048105E-01   1.000998E-01   5.540307E-01   9.145240E-01   2.796589E+00   8.201517E-01   8.583552E-01   2.690890E-01   4.336224E-01   3.722388E-02   4.928089E-02   7.369159E-02   5.044213E-01   4.777151E-01   2.246123E-01   3.309217E-01   2.729668E-01   9.596802E-02   1.231399E-01   7.281578E-02   3.484585E-02   2.485586E-02   2.926526E-01   1.570193E-01   1.764274E-01   1.204167E-01   5.496066E-02   4.421502E-02   1.030368E-01   1.785392E-01   7.994456E-02   4.392545E-01   8.058032E-01   2.016634E+00   8.533938E+00   3.500234E+00   1.978535E+00   1.468001E+01   1.358363E+01   2.061159E+01   1.422637E+02   5.955874E+01   1.179140E+02   1.296582E+01   6.585536E+01   2.675613E+01
   1.460999E+00   4.342085E-01   2.089279E-01   1.161847E-01   2.487096E-01   2.095881E-01   1.830830E-01   1.465248E+00   1.433101E+00   1.257361E+00   1.802145E+00   1.353704E+00   6.987013E-01   1.257147E-01   8.389657E-01   2.213030E-01   7.385365E-01   5.327483E-01   1.155762E-01   1.554691E-01   5.557249E-01   2.678673E-01   4.622873E-01   1.326544E-01   6.316414E-02   3.240590E-01   1.218828E-01   3.695164E-01   1.206052E-01   1.997844E-01   8.194944E-02   8.397725E-02   8.898267E-02   2.630976E-01   9.305946E-02   1.394226E-01   2.046403E-01   8.452629E-01   2.034308E+00   4.698355E+00   6.230287E+00   9.790043E-01   4.186179E+00   1.205143E+01   1.409838E+02   1.460172E+02   2.823872E+01   6.654064E+01   6.289785E+01   3.521676E+01
   4.642601E+00   6.857507E-01   2.917100E-01   6.349833E-02   6.079420E-01   9.854711E-01   1.623882E+00   2.353481E+01   2.272378E+00   1.240013E+00   1.277728E+00   1.649136E+00   2.097190E-01   5.098475E-01   1.131697E+00   8.544863E-01   4.525403E-01   5.306442E-01   1.879790E-01   2.352334E-01   4.338034E-01   1.892744E-01   1.744038E-01   2.251015E-01   1.048012E-01   2.660399E-01   1.162311E-01   5.485915E-02   1.431621E-01   2.539509E-01   3.273872E-01   4.216724E-01   3.436183E-01   3.780382E-01   1.033571E-01   2.970794E-01   1.613977E-01   2.499352E-01   6.805789E-01   1.256462E+00   2.996832E+00   1.782255E+00   2.071620E+00   1.745645E+01   6.693441E+01   2.088470E+01   6.486070E+00   1.668319E+01   1.757098E+01   2.416063E+00
   9.552670E-01   1.944265E-01   3.497076E-01   5.259051E-01   7.153792E-01   1.436464E+00   1.976880E+00   1.461702E+01   9.861648E+00   4.097420E+00   2.520772E+00   1.051273E+00   6.353120E-01   9.898582E-01   2.897873E+00   4.764678E-01   8.410530E-01   8.644978E-01   6.933291E-01   1.335961E-01   7.793732E-01   4.405803E-01   1.593348E+00   7.148751E-01   7.876942E-02   5.504205E-01   1.957036E-01   2.092876E-01   6.876572E-01   2.552148E-01   3.044915E-01   2.734381E+00   2.451810E-01   2.321313E-01   1.628829E-01   3.824244E-01   7.432763E-01   1.227824E+00   3.581852E-01   3.854055E-01   2.238089E+00   3.900599E+00   6.131486E-01   2.712408E+00   5.184355E+00   3.124629E+01   9.563149E+00   6.944189E+00   1.020489E+01   7.195128E-01
   4.246645E+00   6.546310E-01   9.615604E-01   8.944117E-01   8.900254E-01   1.305308E+00   1.671372E+00   3.462147E+00   1.443246E+01   2.455960E+00   2.995736E+00   2.357239E+00   3.128842E+00   1.301988E+00   5.283042E-01   9.708933E-01   1.919471E+00   1.300973E+00   3.039236E-01   2.829261E-01   1.035587E+00   1.223368E+00   2.104113E+00   4.010314E-01   3.865597E-01   8.957980E-01   1.985208E+00   1.134433E+00   5.923223E-01   3.351279E-01   7.588459E-01   9.927394E-01   9.318587E-01   2.745554E-01   1.242474E-01   2.396389E-01   1.545407E+00   6.974417E-01   3.614498E+00   3.078289E+00   4.281712E+00   2.771213E+00   9.917395E-01   5.547247E-01   2.287421E+00   2.371871E+00   1.560128E+00   1.526737E+00   3.719963E+00   1.285211E+00
   1.481375E+00   2.220670E-01   9.933357E-01   7.999116E-01   2.097342E+00   7.961746E-01   5.308907E-01   8.677431E-01   1.004712E+00   1.074881E+01   1.124912E+00   5.932120E-01   1.783920E+00   4.635650E+00   2.708116E+00   5.998743E-01   3.876245E+00   1.211891E+00   4.818663E-01   1.316011E+00   4.998757E+00   3.616490E+00   1.286288E+00   3.541801E+00   1.232536E+00   4.939908E+00   1.574672E+00   7.706288E-01   4.804465E+00   2.008129E+00   1.042982E+00   1.512607E+00   1.176180E+00   4.262617E-01   3.140914E-01   3.600983E-01   1.574279E+00   2.874581E+00   1.852148E+00   3.137539E+00   3.883597E+00   2.721718E+00   1.495393E+00   6.024990E-01   5.080049E-01   2.056664E+00   4.588952E-01   6.505474E-01   3.080151E+00   3.544307E+00
   1.576967E+01   4.524281E+00   2.174353E+00   2.822905E-01   1.925500E-01   8.020293E-01   9.628381E-01   2.305332E+00   6.211750E+00   1.169757E+00   1.575133E+00   3.674203E-01   2.989958E-01   1.410378E+00   2.620653E+00   5.292950E+00   1.936070E+00   1.020352E+00   4.333336E+00   5.347166E+00   1.936991E+01   9.300519E+00   8.997471E-01   4.990622E+00   1.064062E+01   1.508550E+01   5.086347E+00   2.084181E+00   3.189547E+00   8.741089E+00   8.086546E-01   9.723334E-01   2.934845E+00   8.468047E-01   9.366984E-01   3.819206E-01   1.082948E+00   1.268860E+00   3.087740E+00   8.289448E+00   2.290411E+00   2.720194E+00   2.662336E+00   1.540468E+00   5.415508E-01   1.421321E+00   6.926007E+00   7.536314E+00   1.361800E+01   2.933080E+00
   3.325492E+01   3.428538E+00   4.549983E+00   5.030032E-01   3.599514E-01   3.560162E-01   3.171626E-01   1.633331E+00   1.252856E+00   9.252499E-01   6.443532E-01   4.044659E-01   3.049861E-01   2.289766E+00   1.558760E+00   4.287648E+00   4.029754E+00   2.610959E+00   3.353943E+00   1.397100E+00   4.882642E+00   3.950883E+00   3.973499E+00   1.816435E+01   8.509331E+00   8.652968E+00   3.349427E+01   1.816124E+00   3.035169E+00   3.871642E+00   4.674259E-01   3.812688E+00   2.393981E+00   7.853042E-01   8.109751E-01   1.506295E+00   9.525620E-01   1.163227E+00   6.643504E+00   1.773201E+01   5.128712E+00   4.072863E+00   1.788656E+00   9.937180E-01   9.189469E-01   2.522871E+00   4.316007E+00   3.184481E+00   1.688403E+00   9.462250E-01
   2.412410E+01   9.347657E+00   1.526309E+01   2.200150E+00   2.912916E+00   3.837729E-01   2.065889E-01   6.471039E-01   3.083268E-01   6.572480E-01   4.468663E-01   2.347133E+00   2.153162E+00   4.790174E+00   4.461611E+00   2.037730E+00   1.296120E+00   2.243902E+01   1.367953E+01   7.600849E+00   2.731144E+00   7.571900E-01   7.078334E+00   1.013504E+01   3.815223E+00   2.360992E+00   1.453699E+00   7.840390E-01   5.192881E+00   3.255070E+00   2.017465E+00   5.719016E+00   1.106842E+01   2.422448E+00   3.728221E+00   4.520931E+00   6.809069E+00   1.015937E+01   7.058104E+00   1.088102E+01   4.396204E+00   5.670309E+00   5.478188E-01   6.791235E-01   4.224420E-01   3.142037E-01   1.276580E+00   8.810896E-01   3.720606E-01   6.955331E-01
   2.828582E+01   5.705038E+01   2.026435E+01   2.896963E+00   1.290920E+00   8.680714E-01   7.433177E-01   2.022453E-01   3.434092E-01   2.851847E-01   1.449549E+00   9.161371E-01   6.305826E-01   2.493526E+00   1.058349E+01   4.906547E+00   4.243225E+00   6.080178E+00   7.656244E+00   4.150915E+01   2.644665E+00   3.277597E+00   1.383306E+01   1.010061E+01   8.163072E+00   4.330586E+00   1.182973E+00   3.732440E+00   1.095365E+01   2.367877E+00   1.178661E+00   1.525719E+00   1.580390E+00   2.142797E+00   4.232335E+00   3.569812E+00   5.556967E+00   1.131400E+01   7.771950E+00   1.641662E+01   2.932361E+01   3.020504E+00   4.419841E-01   5.909286E-01   1.228181E+00   1.174255E-01   8.679397E-02   1.403532E-01   4.212631E-01   2.374308E-01
   2.670432E+01   2.536641E+01   4.457937E+00   1.426357E+00   4.839002E-01   8.042513E-01   4.809598E-01   9.693673E-02   1.770909E-01   5.146806E-01   2.838305E-01   2.871250E-01   3.504302E-01   1.304809E+00   2.979269E+00   1.044590E+01   1.608766E+00   4.759817E+00   3.473473E+00   7.922727E+00   3.716291E+00   1.222718E+01   7.799295E+00   1.033466E+01   4.023210E+00   1.413888E+00   6.436987E-01   1.373389E+01   4.149274E+01   1.410329E+01   2.071404E+00   5.580166E-01   3.252631E-01   1.267879E+00   6.333892E-01   1.095207E+00   1.641206E+01   1.203819E+01   4.670175E+00   1.186695E+01   2.644274E+00   2.136859E+00   1.287706E+00   1.177158E+00   8.311091E-01   4.453671E-01   2.489320E-01   4.365432E-01   5.224431E-01   1.561125E-01
   4.231813E+01   2.675185E+01   1.849211E+01   1.923023E+00   6.323410E-01   1.920477E+00   4.126908E-01   1.476265E-01   1.074384E-01   4.467293E-01   1.445565E+00   1.178003E+00   7.411901E-01   1.561938E+00   1.441134E+00   5.552872E+00   7.705832E+00   2.453385E+00   2.624832E+00   2.053606E+00   2.497969E+01   4.643406E+01   5.193159E+01   1.035893E+01   3.926505E+00   1.944439E+01   2.317471E+00   1.566197E+01   1.753141E+01   2.578327E+00   6.343650E-01   2.849557E-01   3.436427E-01   8.099533E-01   4.524662E-01   6.971761E+00   5.914268E+00   3.042405E+00   9.843691E+00   2.893667E+00   2.324190E+00   9.269686E-01   1.434807E+00   9.233591E-01   2.560743E+00   2.682089E+00   4.581980E-01   3.232046E-01   1.145908E+00   1.025524E-01
   5.197830E+01   1.324091E+01   1.062557E+00   5.855697E-01   4.633220E-01   1.259358E+00   6.197686E-01   1.465445E-01   6.469850E-01   9.291967E-01   3.500408E-01   5.130693E-01   4.791055E-01   4.615437E-01   1.413078E+00   7.092969E-01   5.663211E+00   1.776663E+01   4.775148E+00   1.112061E+01   1.822983E+01   7.110120E+01   5.646392E+01   8.887999E+00   2.151607E+01   9.924741E+00   6.251219E+00   2.453113E+01   6.980009E+00   4.705139E+00   8.733918E-01   1.183379E+00   2.063691E+00   1.396326E+00   5.276155E+00   1.180710E+01   2.255855E+00   1.091272E+00   4.979514E-01   9.737467E-01   8.033018E-01   1.825185E+00   8.770849E-01   8.592561E-01   5.651803E+00   1.629328E+00   3.024296E-01   6.969577E-01   9.255496E-01   2.843460E-01
   1.938638E+00   3.811761E+00   1.358945E+00   4.034712E-01   3.616633E-01   2.146190E-01   6.835507E-01   3.444743E-01   2.455850E+00   2.068409E+00   2.022901E-01   6.978539E-01   1.809516E+00   9.660748E-01   6.393667E-01   4.676390E-01   6.586624E-01   7.281619E+00   4.432891E+00   1.154039E+01   2.409828E+01   9.857364E+01   4.930525E+01   4.857991E+01   2.158033E+02   1.758377E+02   1.250290E+01   2.275013E+01   1.037219E+01   1.423822E+01   1.517949E+01   3.464685E+00   1.688371E+01   5.649409E+00   6.373185E+00   5.448493E+00   2.163665E+00   1.318963E+00   3.672034E-01   8.152030E-01   1.036631E+00   1.395571E+00   2.344720E+00   1.256644E+01   4.028638E+00   5.713757E+00   1.104573E+00   4.426117E-01   1.545689E+00   5.719958E-01
   2.577445E+00   2.708644E+00   7.088476E-01   1.588351E+00   1.955496E-01   1.716208E-01   5.829874E-01   3.693626E-01   7.167493E-01   4.700470E-01   1.382897E-01   1.125101E-01   7.583831E-01   6.940430E-01   4.875578E-01   4.552540E-01   6.143250E-01   9.981753E-01   1.982226E+00   1.250704E+01   5.591776E+01   4.606004E+01   2.513668E+02   1.933534E+02   3.310319E+02   5.621972E+01   8.572119E+01   6.050544E+01   4.084903E+01   1.646813E+01   2.575875E+01   1.739431E+01   3.609798E+01   1.568088E+01   3.351717E+00   2.862599E+00   3.073119E+00   2.127309E+00   5.540639E+00   5.192580E-01   7.136424E-01   1.280469E+00   2.496067E+00   1.332384E+01   1.138670E+01   7.553045E+00   1.487701E+00   1.508131E+00   8.445579E-01   3.568265E-01
   9.579525E-01   2.824879E+00   3.049547E+00   2.285146E+00   1.049332E+00   2.318218E-01   2.655943E+00   1.654479E+00   1.042358E+00   4.299679E-01   2.805867E-01   3.346963E-01   4.547795E-01   1.022218E+00   2.677268E-01   2.545812E-01   7.971746E-01   1.227783E+00   1.298360E+00   2.230300E+00   3.745492E+00   4.047696E+01   3.492505E+02   2.449909E+02   4.759239E+02   6.921952E+01   5.158562E+01   9.814452E+01   3.928994E+01   2.527868E+01   2.859551E+01   6.232008E+01   2.738518E+01   9.957606E+00   2.032431E+00   1.295665E+00   6.117005E+00   5.518794E+00   2.242688E+01   1.988796E+01   7.046751E+00   4.986456E+00   3.039999E+00   4.755537E+00   1.633567E+00   5.373533E-01   1.377603E+00   5.956116E+00   3.587304E+00   5.761831E-01
   5.638413E-01   5.566014E-01   1.394860E+00   1.688809E+00   1.121322E+00   1.026377E+00   1.473654E+00   4.664431E+00   3.786513E+00   2.576216E+00   2.149621E-01   2.788858E-01   3.734665E-01   2.058566E-01   4.955996E-01   4.469674E+00   2.090922E+00   1.918428E+00   1.030038E+00   3.234390E+00   4.173591E+00   3.058930E+01   1.479401E+02   1.482484E+02   1.177369E+02   4.466845E+01   3.178276E+01   7.748666E+00   1.576904E+01   9.476218E+00   7.145561E+00   2.129201E+01   2.717231E+01   1.129292E+00   2.147481E+00   9.078701E-01   2.790336E+00   1.971085E+01   4.438352E+01   6.258385E+01   1.756176E+01   1.656927E+00   1.580548E+00   1.786833E+00   6.411261E-01   1.909984E+00   1.573518E+00   2.270867E+00   6.962250E-01   5.052909E-01
   2.119132E-01   1.853798E-01   2.319179E-01   1.181309E-01   1.958321E-01   5.490182E-01   1.763820E+00   1.374099E+00   9.681459E+00   9.401557E-01   9.816486E-01   5.032871E-01   4.954045E-01   3.975339E-01   1.411211E+00   2.467204E+00   3.104695E+00   4.279638E+00   4.623991E-01   1.843753E+00   1.759315E+01   1.512067E+01   2.167882E+01   7.147500E+01   1.182158E+02   2.017128E+02   1.747880E+01   1.188120E+01   9.758909E+00   3.003604E+00   8.565884E+00   1.317218E+01   4.986529E+00   9.818195E-01   6.639830E-01   4.166825E+00   1.038165E+01   3.580717E+01   3.821514E+01   8.976781E+01   2.450948E+01   1.195413E+00   4.112637E+00   6.682584E+00   2.401964E+00   1.480324E+00   1.157649E+00   8.584999E-02   1.393994E-01   7.023329E-02
   8.307558E-02   1.002907E-01   7.927728E-02   2.472545E-02   9.704439E-02   1.654021E-01   1.735902E-01   3.538278E-01   7.541472E-01   6.058655E-01   8.908473E-01   2.136247E-01   5.101293E-01   5.115933E-01   2.364374E+00   4.772710E+00   4.055310E+00   2.311738E+00   2.315471E+00   7.977083E+00   2.014313E+01   1.376845E+01   3.530404E+01   5.850882E+01   1.195318E+02   1.515484E+01   9.209958E+00   7.945374E+00   1.826811E+00   5.668447E+00   3.879963E+00   2.545476E+00   3.095327E+00   1.039332E+00   2.026033E+00   1.093292E+01   8.388253E+00   3.806702E+01   1.241413E+01   3.579027E+01   7.497737E+00   1.113089E+00   1.573186E+00   5.230130E+00   1.383091E+00   1.487160E+00   1.422976E-01   1.008469E-01   8.744997E-02   4.508349E-02
   1.168754E-01   3.089668E-01   1.778541E-01   5.520248E-02   2.475382E-02   7.814039E-02   3.316024E-02   4.181603E-01   3.598308E-01   8.485473E-01   1.233598E+00   5.435948E-01   2.448806E+00   7.695479E-01   1.513104E+00   3.216208E+00   7.935815E+00   4.912723E+00   5.077709E+00   2.865454E+01   8.498658E+01   1.778834E+01   1.340290E+01   1.507518E+01   6.627588E+00   8.366702E+00   6.202343E+00   8.715453E+00   2.962514E+00   6.154496E+00   4.315361E+00   1.345184E+00   1.188716E+00   9.063515E-01   1.523479E+00   1.762300E+01   1.243152E+01   6.899326E+00   5.929009E+00   5.932613E+00   8.396762E-01   1.009078E+00   2.516186E+00   3.334722E+00   7.769949E-01   2.014887E+00   4.038479E-01   3.388039E-01   5.910435E-02   2.983250E-02
   2.676707E-01   1.569790E-01   2.253595E-01   5.251011E-02   1.515689E-02   3.484658E-03   3.263440E-02   1.224511E-01   4.582077E-01   1.210264E+00   1.041691E+00   1.157448E+00   3.102383E+00   6.513097E+00   8.814692E-01   1.014103E+01   4.657061E+00   1.228526E+01   7.081602E+00   3.855896E+01   1.776784E+02   9.972726E+00   1.351313E+01   1.107340E+01   3.740204E+00   3.396938E+00   6.379775E+00   2.426697E+00   2.318969E+00   1.980775E+00   1.374771E+00   4.205649E-01   6.064688E-01   5.449492E-01   7.334255E+00   1.020874E+01   7.790714E+00   2.056296E+01   3.162169E+00   4.548378E+00   3.600348E+00   1.465118E+00   6.777886E-01   4.647276E-01   6.703589E-01   1.146450E-01   6.885753E-02   4.711497E-01   1.779738E-01   3.707353E-01
   6.214268E-01   3.012337E-01   3.439597E-01   2.792332E-02   1.034540E-02   3.698027E-03   2.803625E-02   3.199480E-01   5.609906E-01   3.796771E-01   1.305998E+00   1.417548E+00   1.164670E+00   8.949596E-01   1.604929E+00   7.941706E+00   1.183710E+01   2.935277E+00   3.800992E+00   5.679033E+01   1.109393E+02   4.234520E+01   6.867514E+01   5.683413E+00   6.011744E+00   3.707536E+00   6.097961E+00   2.022996E+00   2.717959E+00   1.322746E+00   4.066876E-01   1.080987E+00   5.882645E-01   9.850915E-01   1.620607E+00   3.497163E+00   1.263411E+01   5.877657E+00   9.481999E-01   1.799277E+00   7.544318E-01   1.413018E+00   1.661431E+00   7.466317E-01   6.320482E-01   3.051721E-01   4.324028E-01   6.125409E-01   3.400988E-01   1.443775E+00
   1.600133E-01   8.837960E-01   1.750354E-01   3.551973E-02   8.195538E-03   4.270443E-03   6.044817E-03   9.922999E-02   1.631778E-01   3.675703E-01   3.135817E+00   5.229888E-01   2.071746E+00   2.501324E+00   4.118766E+00   8.696396E+00   2.233216E+00   3.722278E+00   4.345530E+01   4.218785E+01   1.624457E+02   1.733910E+02   4.749663E+01   1.390648E+01   2.462876E+01   6.155992E+00   1.852316E+01   3.978869E+01   1.064235E+01   1.315135E+00   3.188157E+00   8.945658E-01   2.658608E-01   4.391815E+00   6.139275E+00   3.098614E+00   2.065005E+00   1.305809E+00   4.076047E-01   1.273581E-01   1.736660E+00   1.312862E+00   1.065924E+00   8.484291E-01   2.361678E-01   2.848338E-01   1.265114E-01   4.669765E-01   1.045421E+00   1.514449E+00
   5.631003E-02   1.717284E-02   3.665803E-02   3.008389E-02   1.198576E-02   2.138753E-03   2.241986E-03   9.827102E-03   7.977981E-02   3.370067E-01   6.895286E-01   2.102652E+00   6.714859E+00   2.682625E+00   3.822377E+01   2.361124E+01   2.811869E+01   5.683945E+00   7.536368E+01   4.311352E+02   4.310212E+02   2.541159E+02   7.643224E+01   9.171647E+00   1.556812E+01   2.452787E+01   1.153328E+02   2.213761E+01   2.714503E+01   2.577730E+00   9.396999E+00   2.854633E+00   1.253548E+00   3.384817E+00   9.352238E-01   1.595163E+00   1.554940E+00   7.583711E-01   1.202193E-01   2.361069E-01   9.071590E-01   1.076879E+00   5.303758E-01   5.134804E-01   9.618173E-02   3.292893E-01   1.630542E-01   4.415405E-01   3.381659E-01   3.211074E+00
   7.216725E-03   8.726293E-03   9.398700E-03   4.383650E-02   5.317060E-03   1.988556E-03   3.241129E-03   1.490175E-02   1.059249E-01   8.263766E-01   1.797751E+00   1.378562E+00   3.543500E+00   5.590574E+00   2.457454E+00   4.373868E+00   7.317919E+00   4.020739E+01   9.280173E+01   6.733279E+01   3.972838E+02   1.161887E+02   5.270176E+01   1.712279E+01   1.195174E+01   5.321804E+01   2.794414E+01   8.906906E+00   1.212398E+01   1.058391E+01   9.486427E+00   7.327436E+00   2.314747E+00   4.312262E+00   3.038872E-01   5.632626E-01   6.407028E-01   2.854603E+00   4.160367E-01   6.040487E-01   8.617012E-01   6.859082E-01   2.521628E-01   1.801676E-01   8.811089E-02   1.532795E-01   7.919990E-02   1.014776E-01   2.605581E-01   1.252421E+00
   1.129179E-02   1.584083E-02   1.344632E-02   4.517281E-02   1.369415E-02   2.946225E-03   6.813422E-03   5.998021E-03   1.159722E-01   1.241340E+00   1.562633E+00   3.160447E+00   9.845280E+00   6.759658E+00   9.953022E+00   1.831099E+00   1.301563E+01   2.181701E+01   4.456536E+01   1.454415E+02   6.319315E+02   2.343659E+02   4.331771E+01   2.518339E+01   5.313400E+01   5.119004E+01   1.025330E+01   1.440393E+01   1.109840E+01   5.074994E+01   2.790522E+00   1.414131E+00   4.785893E-01   4.867515E-01   3.713377E-01   9.207650E-01   9.825819E-01   1.634671E+00   4.858090E+00   1.687980E+00   1.398648E-01   8.078898E-02   2.631938E-01   3.331245E-01   8.959463E-02   1.061879E-01   7.800298E-02   5.537292E-02   3.311300E-01   1.464699E+00
   4.704789E-02   1.164050E-01   2.718756E-02   2.766787E-02   1.671969E-02   2.384062E-02   4.802162E-02   1.026418E-02   6.121977E-02   4.440560E-01   7.555606E-01   4.103764E+00   1.051521E+01   7.196562E+00   1.872064E+00   1.594598E+00   4.839687E+00   2.166313E+01   2.500587E+01   2.325792E+02   2.501317E+02   3.700255E+02   1.625551E+02   1.072879E+02   3.903336E+02   1.264721E+02   2.544527E+01   1.276899E+02   2.514710E+01   1.256224E+01   4.699119E+00   8.342209E-01   1.645171E+00   3.201188E+00   4.007674E-01   1.394318E+00   4.342293E-01   1.987945E-01   1.263962E+00   1.206015E+00   3.349505E-01   7.930809E-01   1.534219E-01   2.597271E-01   2.168190E-02   5.564220E-02   4.978371E-02   1.764395E-01   4.876980E-01   4.296300E-01
   1.548891E-01   1.042807E-01   1.949861E-02   3.277986E-02   5.099134E-03   4.762204E-03   3.586523E-03   5.435649E-02   4.373438E-01   5.637435E-01   1.717251E+00   1.257795E+00   8.844248E+00   2.492788E+00   1.498772E+00   1.392961E+00   7.357001E+00   2.292833E+01   5.286764E+01   9.578885E+02   1.084051E+03   1.167090E+03   2.194060E+02   2.352160E+02   9.760586E+01   1.962311E+02   1.299313E+02   5.099570E+02   2.552729E+02   2.168612E+02   9.742599E+00   7.943555E+00   5.762442E+00   4.933995E+00   4.383106E-01   8.686092E-01   7.255693E-01   1.414246E+00   4.559703E-01   2.683164E-01   9.228924E-01   4.445087E-01   3.773710E-02   4.095832E-02   9.552404E-03   1.472357E-02   9.062260E-02   8.810233E-02   2.011731E-01   1.389975E-01
   1.810580E-02   1.616870E-02   1.294959E-02   4.703151E-03   2.912494E-03   4.113032E-03   9.523391E-03   9.865055E-02   4.315723E-01   6.329361E-02   1.228704E-01   2.433160E+00   4.232489E+00   2.529890E+00   2.278263E+00   5.648499E+00   1.060864E+01   1.079732E+02   1.278026E+02   1.413032E+03   4.087619E+02   7.232034E+02   5.323511E+02   4.282199E+02   7.511810E+01   6.525117E+01   2.068366E+02   3.384217E+02   3.099856E+02   4.617409E+02   3.840544E+02   2.950778E+01   3.069381E+01   4.876828E+00   2.622524E+00   3.363316E+00   1.768013E+00   5.257853E+00   4.550152E+00   5.252810E-01   1.765666E+00   6.004112E-01   1.048762E-01   7.531586E-02   6.184642E-02   6.785318E-02   2.972626E-02   1.433796E-01   2.567090E-01   1.347394E-01
   1.569884E-02   4.616767E-03   8.696530E-03   6.172695E-03   1.517293E-02   7.752311E-03   7.093352E-03   1.364793E-01   4.351189E-01   4.204883E-02   8.229815E-02   3.953254E-01   7.885495E-01   3.549726E+00   3.520068E+00   4.254339E+00   9.560051E+00   1.725856E+01   8.653432E+00   8.877852E+01   1.717608E+02   5.279547E+02   5.468970E+02   5.641149E+02   1.573702E+02   5.964747E+01   1.434515E+02   3.957549E+02   1.375589E+02   4.775778E+02   1.385975E+02   3.045830E+02   4.815815E+01   9.327709E+00   1.909293E+01   6.505316E+00   1.109644E+01   8.849239E+00   1.089427E+01   3.736027E+00   2.287631E+00   1.351665E+00   3.459326E-01   8.346140E-02   7.117316E-02   5.872907E-02   1.654238E-01   3.552281E-01   3.243348E-01   1.175358E-01
   6.847528E-03   1.528693E-02   5.898547E-03   1.848319E-02   2.705639E-02   4.855581E-02   2.517018E-02   3.058750E-02   3.110526E-02   2.040737E-02   3.012943E-02   1.228494E-01   3.957960E-01   9.786760E-01   6.194867E+00   7.224948E-01   7.372697E-01   1.733052E+00   1.426320E+01   1.328362E+02   7.629938E+01   1.014272E+02   1.554023E+02   4.043854E+02   1.410622E+02   1.235255E+02   1.310333E+02   3.322629E+02   4.118023E+02   8.357907E+02   9.741636E+02   8.713256E+01   1.126770E+02   9.291724E+01   5.014657E+00   2.961682E+00   8.308821E+00   3.326024E+00   5.618430E+00   3.464736E+00   1.684506E+00   1.368636E+00   2.901637E-01   1.184079E-01   2.642494E-02   1.115859E-01   1.327469E-01   4.296800E-01   1.648773E-01   5.037035E-02
   2.446258E-02   1.239380E-02   3.568730E-02   5.467932E-02   1.898053E-01   5.829049E-02   4.115406E-02   3.531414E-03   3.053875E-03   2.100599E-03   2.639394E-02   4.704430E-01   3.106182E-01   7.818158E-01   1.530914E+00   9.594946E-01   3.140544E+00   2.093982E+00   6.732624E+00   3.628619E+01   1.997287E+02   1.712886E+02   1.639169E+02   3.160779E+02   1.562570E+02   3.249818E+01   1.210894E+02   5.718391E+02   1.910345E+03   4.412957E+03   1.884229E+03   2.614470E+02   2.851869E+01   3.471840E+01   1.310695E+01   6.374787E+00   3.609372E+00   1.088030E+01   5.997925E+00   4.506288E+00   7.213559E+00   1.861416E+00   3.055739E-01   9.834082E-02   1.643272E-01   9.186991E-01   1.878727E+00   1.176919E+00   5.085645E-01   9.932034E-01
   8.701431E-02   1.331366E-01   1.841407E-01   1.727265E-01   2.686765E-01   7.916087E-02   2.168336E-02   1.433421E-02   6.375458E-03   1.336191E-02   8.557584E-02   1.742526E-01   1.991640E-01   7.096815E-01   2.949970E+00   1.818535E+00   2.505332E+00   3.281585E+00   1.487467E+00   7.983876E+00   5.487056E+01   7.689781E+01   1.187894E+02   2.607656E+02   8.114943E+01   4.190448E+02   8.144262E+02   1.672471E+02   2.705565E+02   5.226929E+02   2.231025E+03   1.001904E+02   1.416486E+01   1.286773E+01   3.813036E+00   5.983702E+00   1.854208E+00   7.392836E+00   5.239307E+00   2.833419E+00   2.494365E+00   2.748755E-01   2.816901E-01   1.052678E-01   1.088591E-01   2.789834E+00   1.942807E+00   1.376206E+00   1.800405E+00   2.864717E-01
   4.984905E-01   3.506496E-01   1.112207E-01   1.438195E-01   2.551883E-01   2.711469E-02   1.273646E-02   1.025691E-02   2.814451E-02   1.734347E-02   1.388664E-01   5.256474E-02   8.309294E-02   7.197800E-02   6.924701E-02   1.451991E+00   1.961267E+00   6.026129E+00   2.317341E+00   6.486192E+00   2.830964E+01   2.840239E+01   1.100890E+02   9.214954E+02   5.053764E+02   1.201291E+03   2.093341E+03   4.263162E+02   2.802174E+02   2.142242E+02   2.967890E+02   5.762929E+01   1.187503E+01   1.402064E+01   5.810551E+00   2.999018E+00   7.243737E+00   9.413108E+00   1.161398E+00   1.756052E-01   2.308039E-01   3.776084E-01   1.863268E-01   1.013678E-01   2.084252E-01   8.510692E-01   1.296033E+00   2.664406E-01   3.444048E-01   1.071024E-01
   1.917989E-01   4.413472E-02   8.756239E-02   7.152145E-02   1.352470E-02   1.433510E-02   1.233091E-02   1.456100E-02   2.853360E-02   1.224030E-02   3.514083E-02   1.833028E-02   4.973599E-02   2.326989E-01   1.440697E-01   1.132785E-01   2.992729E-01   9.841205E-01   4.051031E+00   4.760854E+00   1.664659E+01   4.936900E+01   4.763796E+02   8.267192E+02   4.984910E+02   8.555386E+02   7.519906E+02   2.724874E+02   1.087049E+03   1.961724E+02   2.088775E+02   2.452069E+01   4.005545E+01   1.431061E+01   2.013980E+01   1.220780E+00   1.158582E+00   1.706797E+00   1.855486E-01   1.435678E-01   6.972911E-02   2.139414E-02   1.712482E-01   1.008116E+00   1.112458E+00   6.789104E-01   2.550214E-01   1.446880E-01   1.148518E-01   2.572333E-01
   2.072138E-01   5.559482E-02   1.191831E-01   8.127856E-02   4.094546E-02   4.015189E-02   1.581269E-02   5.520122E-03   1.391232E-02   4.461481E-02   6.141768E-02   2.110372E-02   3.497232E-02   3.566187E-01   8.599623E-01   9.279820E-01   8.491816E-01   1.282165E+00   2.168395E+00   3.636756E+00   2.066981E+02   1.966346E+02   2.658113E+02   2.160187E+02   3.261796E+02   3.770628E+02   5.809151E+03   1.280145E+03   2.288296E+03   2.590552E+02   3.220340E+02   9.294906E+01   7.110008E+01   1.051912E+01   1.587414E+00   8.375856E-01   8.982380E-01   6.587473E-02   9.160651E-02   3.966260E-02   1.993031E-02   6.541397E-02   4.691000E-01   5.431899E+00   7.529672E-01   1.357072E+00   1.389249E-01   2.898533E-01   4.833691E-01   9.979796E-02
   1.537252E-01   5.073055E-02   6.441532E-02   7.995260E-02   3.784587E-02   4.429059E-02   6.312609E-03   2.938540E-03   7.554372E-03   4.705783E-02   7.425620E-02   9.616193E-02   9.468251E-02   1.027910E+00   2.870671E+00   1.651603E+00   1.960968E+00   4.164129E+00   1.657869E+00   9.957107E+00   3.819925E+02   9.002842E+02   1.844243E+02   1.822447E+02   9.633076E+01   1.422439E+02   1.272388E+03   4.360057E+02   8.505862E+02   1.298469E+02   1.092453E+03   6.082869E+01   9.101051E+00   9.187606E+00   1.768665E+00   3.544118E-01   2.741361E-01   2.721331E-01   4.387818E-01   1.286583E-01   4.188206E-01   3.553059E-01   7.484693E-01   1.110723E+00   5.404573E-01   6.848276E-01   7.017834E-01   4.830362E-01   1.640828E+00   2.973859E-01
   2.385768E-01   1.122801E-01   2.521260E-01   2.272582E-01   3.060087E-01   8.026607E-02   4.456034E-02   2.555761E-02   5.266294E-02   5.123622E-02   5.224391E-02   1.077595E-01   7.409267E-02   6.728625E-01   8.773332E+00   3.884562E+00   1.034327E+01   3.656750E+00   2.729037E+00   2.886001E+00   8.520405E+01   2.657618E+02   1.420968E+02   2.658707E+02   7.641054E+01   7.722285E+01   1.758857E+02   2.533741E+02   1.164168E+02   7.134636E+01   2.260750E+02   2.382944E+02   2.451620E+01   5.960529E+01   1.964451E+00   6.760372E-01   5.399167E-01   1.722059E+00   1.709585E+00   5.352041E-01   1.079695E+00   5.100858E-01   7.278146E-01   2.876456E-01   7.715517E-01   3.444748E+00   8.350359E+00   8.935417E-01   6.648642E-01   1.804753E-01