# UPW package for  MODFLOW-NWT, generated by Flopy.
        55    -1E+30         0         0 
         1
         0
   1.000000E+00
         0
         0
INTERNAL               1  (50E15.6) -1 #hk layer 1                    
   9.511210E+00   9.239794E+00   1.669335E+01   1.095275E+00   2.303653E-01   4.972409E-01   2.482249E-01   4.240040E-01   4.255668E-01   2.019287E-01   1.339807E-01   7.986674E-02   7.417999E-02   5.500079E-02   5.703581E-01   3.463291E-01   6.936482E-01   4.507897E-01   5.619129E-01   3.636404E-01   4.706681E-01   1.115128E-01   1.707387E-01   5.854883E-02   5.263308E-02   1.398639E-01   3.777783E-01   1.446015E-01   9.208091E-02   2.868832E-01   3.579168E-02   5.052937E-02   2.227510E-01   1.515605E-01   3.566508E-01   4.864729E+00   3.834523E+00   4.751778E+00   5.467184E+00   2.420671E+01   1.606585E+01   9.771695E+00   9.349738E+01   7.819572E+01   3.125424E+02   1.253196E+03   1.625738E+01   1.224351E+02   5.519454E+00   4.905269E+00
   4.599676E+01   1.033503E+01   9.083852E-01   5.985491E-01   3.572650E-01   6.852903E-02   2.797031E+00   2.391659E+00   2.935558E+00   7.064250E-01   1.622092E-01   1.477004E-01   3.875216E-01   2.827227E-02   1.281985E-01   2.321273E-01   6.486019E+00   5.316191E+00   1.456741E+00   9.311194E-01   3.291034E-01   3.968945E-02   1.000433E-01   9.035690E-02   1.646942E-02   3.100106E-02   1.750086E+00   4.871101E-01   7.557910E-01   2.961386E-01   3.260548E-02   3.728317E-02   7.403780E-02   1.197941E-01   4.765026E-02   1.763599E-01   5.203899E-01   8.554084E-01   8.921371E+00   2.526210E+00   3.386716E+00   2.455285E+01   5.968231E+00   2.093857E+01   6.680078E+02   2.567723E+02   1.613379E+02   1.632529E+01   3.168988E+01   2.068156E+01
   9.866036E+00   1.452740E+00   8.903579E-01   4.554070E-01   5.388742E-01   2.550184E-01   3.608980E-01   3.351842E+00   3.222872E+00   6.575784E-01   2.280350E+00   1.432310E+00   8.740368E-01   1.357239E-01   1.943046E+00   1.331118E+00   8.039305E+00   5.176984E+00   1.987878E-01   3.722506E-01   7.729238E-01   7.050347E-02   4.313053E-01   1.874450E-01   4.701797E-02   5.325733E-01   4.260589E-01   6.946570E-01   6.319821E-01   9.447248E-01   7.992656E-02   5.679215E-02   6.854322E-02   2.292094E-01   4.609491E-02   3.980138E-02   9.716300E-02   3.010101E-01   6.438923E-01   7.158629E-01   5.731327E+00   7.997892E-01   5.177204E+00   2.340526E+01   4.334363E+02   9.090797E+02   6.053878E+01   5.534361E+01   2.567537E+01   1.819010E+01
   1.977382E+01   2.235116E+00   1.406470E+00   4.242770E-01   4.732870E+00   3.072412E+00   1.010818E+00   5.609361E+01   3.416819E+00   2.029314E+00   2.499873E+00   1.411954E+00   1.648328E-01   6.996641E-01   5.142014E+00   4.400085E+00   1.598082E+00   5.422163E+00   2.596654E-01   4.720041E-01   6.474385E-01   1.595056E-01   2.399489E-01   2.379413E-01   1.490575E-01   3.480506E-01   6.017958E-01   3.640095E-01   6.685925E-01   5.990825E-01   5.381768E-01   2.073816E-01   3.204009E-01   4.918868E-01   3.156071E-02   1.215504E-01   7.113264E-02   7.138186E-02   4.211607E-01   1.180623E-01   9.316732E-01   9.357782E-01   2.236677E+00   1.991812E+01   1.614698E+02   5.096619E+01   1.487167E+01   1.127491E+01   1.766878E+01   2.743380E+00
   2.598264E+00   3.661531E-01   8.387351E-01   1.244717E+00   3.357110E+00   2.609924E+00   2.330939E+00   1.247092E+01   1.304659E+01   1.107719E+01   9.966321E+00   7.754856E-01   7.141868E-01   9.835032E-01   2.092285E+00   1.024257E+00   2.380419E+00   2.728172E+00   2.193995E+00   4.820450E-01   1.893338E+00   1.427508E+00   1.789447E+00   4.612349E-01   2.334688E-01   6.044058E-01   6.350246E-01   6.801173E-01   8.756178E-01   2.519841E-01   4.210992E-01   8.378783E-01   3.322116E-01   1.064819E-01   1.009904E-01   2.763052E-01   1.177565E+00   3.804927E+00   2.840468E-01   8.408327E-02   7.446243E-01   7.736223E-01   4.591851E-01   3.298435E+00   4.312251E+01   3.929075E+02   8.021623E+01   1.866598E+01   1.341179E+01   1.601150E+00
   2.968992E+00   2.556729E+00   5.227377E+00   2.596294E+00   1.179796E+00   1.732158E+00   2.950125E+00   2.078055E+00   4.683929E+01   5.857106E+00   6.338628E+00   1.674381E+00   2.795754E+00   1.703584E+00   7.559419E-01   2.854055E+00   6.792873E+00   1.048125E+01   8.571397E-01   4.630968E-01   1.358012E+00   3.611752E+00   4.036877E+00   1.801201E+00   1.520369E+00   3.580301E+00   8.033635E+00   6.931294E+00   2.252626E+00   1.026950E+00   1.544076E+00   9.414084E-01   7.005682E-01   1.331161E-01   6.750899E-02   1.512097E-01   3.908640E+00   1.821230E+00   2.375851E+00   6.705100E-01   6.927298E-01   5.868716E-01   5.223855E-01   4.699110E-01   7.867704E+00   9.618125E+00   7.613009E+00   2.794665E+00   2.842928E+00   7.473571E-01
   1.556320E+00   3.581771E-01   1.027374E+00   5.843831E-01   9.632443E-01   6.074154E-01   1.346961E+00   6.476645E-01   1.011390E+00   1.704157E+01   2.086357E+00   5.566230E-01   1.983780E+00   3.845873E+00   3.344038E+00   1.933037E+00   4.842201E+00   5.378656E+00   7.510299E-01   4.646798E+00   7.267853E+00   4.953108E+00   2.676068E+00   1.717167E+01   2.566714E+00   1.881097E+01   1.056142E+01   4.608258E+00   5.391870E+01   5.470881E+00   3.027236E+00   9.106732E-01   7.060992E-01   6.440240E-01   5.377569E-01   9.222998E-01   7.005383E+00   5.614311E+00   1.024191E+00   2.351683E+00   5.219869E+00   7.040995E-01   2.519423E+00   7.941806E-01   1.198803E+00   1.215039E+01   2.714324E+00   1.890750E+00   2.317063E+01   3.019216E+00
   6.110876E+00   3.147244E+00   9.816543E-01   2.234475E-01   2.635353E-01   1.051871E+00   1.017798E+00   1.868497E+00   9.188557E+00   2.843593E+00   3.492018E+00   4.039673E-01   5.738697E-01   2.477591E+00   5.647970E+00   1.360428E+01   2.007717E+00   1.260556E+00   2.926037E+00   1.646165E+01   2.507688E+01   1.058145E+01   5.143473E-01   1.064591E+01   3.624490E+01   9.109879E+01   1.912627E+01   4.908705E+00   4.108429E+00   1.681180E+01   1.172193E+00   1.407358E+00   7.403375E+00   2.383079E+00   2.157001E+00   1.763642E+00   7.425678E+00   4.752546E+00   1.506062E+01   2.033030E+01   3.465633E+00   2.240927E+00   5.846686E+00   4.478016E+00   1.257402E+00   1.110776E+01   6.501329E+01   8.964959E+01   6.387539E+01   5.954060E+00
   5.466356E+01   4.797863E+00   5.752907E+00   7.329182E-01   2.744522E-01   2.541203E-01   2.593348E-01   1.218138E+00   1.679677E+00   4.060143E+00   2.589828E+00   1.441562E+00   9.079537E-01   4.909106E+00   3.354651E+00   2.433847E+00   5.314432E+00   4.203125E+00   3.090613E+00   1.066500E+00   4.869606E+00   3.280435E+00   2.706995E+00   2.234240E+01   2.622032E+01   2.701812E+01   8.003473E+01   7.183915E+00   1.239296E+01   1.685644E+01   3.623679E+00   3.219132E+01   8.927880E+00   2.657890E+00   2.416225E+00   6.588417E+00   9.632656E+00   3.960059E+00   4.810869E+01   5.401191E+01   4.093965E+00   2.574670E+00   1.361066E+00   1.409443E+00   1.695113E+00   1.850767E+01   2.600621E+01   5.586088E+00   6.051853E+00   4.185623E+00
   1.197843E+02   1.094074E+01   8.566895E+00   2.023737E+00   2.106689E+00   4.613359E-01   1.881964E-01   2.825972E+00   3.993110E-01   1.028279E+00   9.307429E-01   4.609289E+00   1.799513E+01   2.251505E+01   2.882209E+01   2.691795E+00   2.298027E+00   4.063283E+01   1.078717E+01   4.662232E+00   1.314441E+00   5.011470E-01   4.184106E+00   5.434877E+01   1.546131E+01   1.023080E+01   5.637684E+00   2.638570E+00   5.304077E+01   2.743116E+01   2.808565E+01   7.409966E+01   1.563729E+02   1.727866E+01   2.853478E+01   1.005132E+01   2.215226E+01   1.702525E+01   2.255512E+01   1.282536E+02   1.353838E+01   2.305323E+00   2.155444E-01   1.153652E+00   1.048057E+00   3.099057E+00   9.506929E+00   6.931623E+00   1.933579E+00   2.594754E+00
   2.154973E+01   3.626066E+01   2.177250E+01   3.216635E+00   1.458708E+00   1.089332E+00   1.389239E+00   3.923947E-01   4.230665E-01   3.775883E-01   2.427381E+00   1.117446E+00   1.041809E+00   3.612132E+00   2.035456E+01   1.356803E+01   6.767492E+00   1.335899E+01   1.567184E+01   2.387357E+01   2.542900E+00   1.523447E+00   1.863883E+01   1.049941E+01   1.508006E+01   1.470629E+01   3.078197E+00   9.690684E+00   1.163855E+02   1.908855E+01   4.773686E+01   5.751920E+01   2.377285E+01   1.864809E+01   3.816236E+01   2.172467E+01   4.198022E+01   2.707958E+01   9.407041E+00   6.221254E+01   5.623267E+01   2.576207E+00   3.372295E-01   3.003210E+00   1.944171E+00   6.731287E-01   6.518084E-01   5.319881E-01   2.116430E+00   5.417941E-01
   1.268565E+01   5.055676E+00   3.832233E+00   1.057752E+00   7.431397E-01   1.999601E+00   3.533182E-01   2.046902E-01   4.490364E-01   9.367655E-01   6.126109E-01   2.030785E-01   5.171632E-01   1.539587E+00   3.083035E+00   1.655634E+01   5.677341E+00   7.809042E+00   1.083518E+01   1.399572E+01   5.613952E+00   9.556302E+00   3.503354E+00   9.865892E+00   2.589143E+00   1.590437E+00   1.515348E+00   7.703831E+01   1.749903E+02   7.111773E+01   7.187996E+01   2.167684E+01   3.744822E+00   2.077691E+01   9.558699E+00   1.694351E+01   1.577171E+02   7.861510E+01   1.704772E+01   7.119874E+01   5.505726E+00   2.269685E+00   3.954802E+00   1.906780E+00   1.816086E+00   1.405614E+00   1.144863E+00   1.699557E+00   2.564942E+00   1.224147E+00
   2.099277E+01   4.331182E+00   5.543005E+00   8.925234E-01   2.127463E+00   5.331042E+00   6.453804E-01   3.981804E-01   3.619563E-01   5.911762E-01   2.684888E+00   1.337948E+00   7.155334E-01   1.386924E+00   4.328910E+00   1.893262E+01   1.365065E+01   1.080449E+00   1.653213E+00   2.202771E+00   1.844063E+01   1.082100E+01   4.919051E+01   6.450983E+00   2.372591E+00   1.840700E+01   4.887404E+00   2.231967E+01   4.937856E+01   9.779613E+00   5.953966E+00   7.195060E+00   7.759177E+00   7.117936E+00   5.488357E+00   7.211789E+01   8.985323E+01   2.003473E+01   2.843919E+01   6.799199E+00   2.906250E+00   9.431676E-01   1.774374E+00   3.583530E+00   6.936927E+00   6.406564E+00   1.250185E+00   4.234338E-01   2.463461E+00   5.242700E-01
   5.546317E+01   5.159094E+00   3.875076E-01   2.059860E+00   2.186605E+00   8.752966E+00   2.135329E+00   7.862463E-01   3.570799E+00   1.116390E+00   2.516592E-01   1.564310E-01   2.563022E-01   5.058271E-01   3.469997E+00   3.055865E+00   1.148999E+01   1.149431E+01   3.211479E+00   6.748489E+00   6.913197E+00   3.053678E+01   6.314479E+01   2.330732E+01   2.512489E+01   6.039571E+00   1.964857E+00   7.485968E+00   6.608214E+00   7.787047E+00   8.107878E+00   2.003062E+01   2.547069E+01   1.884551E+01   5.952472E+01   1.726564E+02   1.506207E+01   4.089310E+00   3.051722E+00   5.025047E+00   1.926629E+00   3.662924E+00   9.791019E-01   1.991497E+00   3.639241E+01   3.503236E+00   2.456576E-01   2.063568E+00   3.003582E+00   2.306415E+00
   8.823846E-01   6.658402E+00   2.349679E+00   2.624978E+00   9.547161E-01   1.024168E+00   3.870523E+00   4.284407E+00   1.809625E+01   4.020534E+00   2.971766E-01   8.695515E-01   1.913563E+00   2.725373E+00   1.459034E+01   1.625605E+00   7.248691E-01   1.203679E+01   6.254367E+00   4.396396E+00   1.176554E+01   1.527054E+01   4.144964E+01   7.757644E+01   2.675667E+02   1.307662E+02   5.707099E+00   1.080635E+01   1.352079E+01   1.027019E+02   3.302238E+02   9.797616E+01   2.946331E+02   5.171979E+01   4.792371E+01   3.808807E+01   6.393217E+00   1.834861E+00   1.514081E+00   9.910136E+00   6.592335E+00   5.839756E+00   3.180035E+00   6.284990E+00   9.054271E+00   5.265635E+00   3.459747E+00   3.307419E+00   6.207649E+00   1.273963E+01
   3.965141E+00   7.673069E+00   1.266175E+00   2.436077E+00   3.215706E-01   9.587986E-01   1.030235E+00   4.377478E-01   6.032956E-01   1.136463E+00   4.859645E-01   2.578022E-01   4.342377E+00   5.168705E+00   3.109993E+00   1.099679E+00   9.318818E-01   1.363970E+00   1.643225E+00   2.001023E+01   2.270313E+01   4.059584E+01   2.506440E+02   3.393958E+02   6.540289E+02   6.244600E+01   3.115631E+01   8.801616E+01   7.356417E+01   8.033765E+01   2.828638E+02   5.553831E+02   9.444267E+02   1.359735E+02   7.201190E+00   1.433508E+01   5.939010E+00   6.415303E+00   4.003275E+01   1.438691E+00   2.953457E+00   6.595508E+00   1.237888E+01   3.645936E+01   1.340190E+01   6.237636E+00   2.934981E+00   5.297113E+00   4.156226E+00   2.993603E+00
   1.522409E+00   9.445781E+00   5.906838E+00   2.021650E+00   9.101833E-01   9.911051E-01   7.864045E+00   1.236749E+00   4.200346E-01   4.127595E-01   1.066585E-01   3.352151E-01   1.485382E+00   1.891193E+00   4.088130E-01   3.315057E-01   1.288476E+00   4.932397E+00   2.597469E+00   4.434836E+00   4.418525E+00   4.227792E+01   6.908027E+02   2.528029E+02   7.933770E+02   7.941363E+01   6.503941E+01   2.504667E+02   1.822315E+02   1.200745E+02   1.991969E+02   1.025284E+03   6.029669E+02   9.104263E+01   8.892215E+00   7.327688E+00   1.173422E+01   3.142733E+01   8.199286E+01   9.344801E+01   3.790978E+01   1.185989E+01   9.497750E+00   1.782108E+01   3.732614E+00   6.148675E-01   3.589502E+00   2.372971E+01   1.962950E+01   1.668812E+00
   6.619343E-01   1.116239E+00   1.906884E+00   4.579101E+00   2.141661E+00   3.180470E+00   6.052206E+00   5.018789E+00   2.122079E+00   1.491616E+00   8.245559E-02   2.363711E-01   2.901740E-01   1.220412E-01   6.094702E-01   1.744357E+00   6.194296E+00   9.705659E+00   1.498799E+00   1.147034E+00   3.416281E+00   5.974661E+01   2.518296E+02   6.821420E+02   8.860229E+01   2.285822E+01   4.005253E+01   8.357533E+00   3.150880E+01   1.557840E+01   1.880459E+01   1.264569E+02   2.341880E+02   1.278109E+01   1.649534E+01   1.247527E+00   9.349662E+00   5.103143E+01   1.913959E+02   1.357231E+02   6.501559E+01   6.356997E+00   4.101224E+00   5.289924E+00   8.035746E-01   8.542255E-01   1.566945E+00   5.750732E+00   5.434077E+00   9.743046E-01
   1.253062E-01   2.467442E-01   4.809097E-01   1.547642E-01   8.930508E-01   9.890649E-01   6.667449E+00   1.829143E+00   5.223817E+00   3.724809E-01   5.391278E-01   1.689829E-01   3.225015E-01   7.053838E-01   3.453671E+00   1.837235E+00   4.045842E+00   4.145327E+00   2.815286E-01   9.095092E-01   2.303533E+01   3.050452E+01   3.438930E+01   6.135110E+01   1.592190E+02   6.512627E+01   6.580741E+00   4.116522E+00   2.215371E+01   4.536481E+00   3.719191E+01   2.723567E+01   1.202012E+01   5.234262E+00   1.364155E+00   4.035479E+00   4.788559E+00   4.674505E+01   1.078082E+02   1.722925E+02   6.400770E+01   2.005745E+00   1.951583E+01   4.262728E+01   8.354668E+00   8.433096E-01   1.802571E+00   3.930689E-01   3.521974E-01   1.339343E-01
   1.918635E-02   6.121023E-02   2.651110E-02   4.647228E-02   1.202806E-01   4.784726E-01   6.935584E-01   4.435696E-01   4.141839E-01   3.865848E-01   4.550520E-01   9.990308E-02   1.475012E-01   4.535605E-01   6.055339E+00   1.240614E+01   1.994978E+00   1.445550E+00   1.870474E+00   1.260118E+01   2.343475E+01   3.540734E+01   5.542977E+01   8.485217E+01   3.067485E+02   2.176449E+01   6.856575E+00   4.701627E+00   3.606170E+00   1.761463E+01   5.411819E+00   3.218370E+00   1.826183E+00   6.389884E-01   1.355370E+00   3.700555E+00   2.551885E+00   1.111747E+01   1.027327E+01   4.076658E+01   1.225451E+01   3.853666E+00   6.816612E+00   1.059428E+01   1.369644E+00   5.424425E-01   1.045180E-01   1.527054E-01   1.485512E-01   7.421151E-02
   1.738097E-02   4.535389E-02   1.084474E-01   4.159600E-02   3.223977E-02   9.848775E-01   1.718148E-01   6.758080E-01   4.615171E-01   8.156628E-01   7.974285E-01   1.589905E-01   1.455383E+00   6.660572E-01   2.681483E+00   3.853009E+00   8.323561E+00   4.323735E+00   1.179415E+01   4.268819E+01   8.343787E+01   2.584383E+01   4.791983E+01   2.294563E+01   6.383580E+00   7.300216E+00   6.703689E+00   1.693623E+01   4.049521E+00   1.842865E+01   3.220628E+00   9.158485E-01   7.652676E-01   5.559369E-01   1.089700E+00   1.340013E+01   1.767275E+01   6.045798E+00   5.215554E+00   1.474342E+00   1.329390E+00   1.231428E+01   1.148841E+01   5.390187E+00   4.941454E-01   1.466547E+00   3.117108E-01   4.164890E-01   7.211358E-02   4.435986E-02
   5.515405E-02   5.828110E-02   1.000906E-01   1.519559E-02   4.858765E-03   1.059055E-02   1.821184E-01   2.039316E-01   2.840916E-01   1.553432E+00   2.007141E+00   2.805631E+00   2.580301E+00   3.984538E+00   1.275281E+00   2.776135E+01   4.763107E+00   2.810786E+01   3.694496E+00   1.735038E+01   3.805481E+02   4.264656E+01   2.433508E+01   1.538540E+01   2.850506E+00   2.344133E+00   1.196076E+01   1.217720E+00   4.747264E+00   3.218729E+00   1.733414E+00   1.844374E-01   1.515600E-01   1.019978E-01   1.379719E+00   5.648504E+00   8.736818E+00   1.477063E+01   3.123452E+00   3.032199E+00   2.430864E+00   4.635875E+00   1.208610E+00   2.310409E-01   4.504825E-01   6.730483E-02   5.735911E-02   1.996969E-01   1.282667E-01   3.013627E-01
   6.400941E-02   7.669047E-02   2.723524E-01   3.452052E-03   4.201637E-03   6.404890E-03   1.663347E-02   2.940240E-01   9.314649E-01   1.434637E+00   2.148002E+00   2.270736E+00   1.720937E+00   1.012203E+00   5.461810E+00   4.811528E+01   1.619676E+01   2.867335E+00   7.216546E+00   9.891795E+01   2.562365E+02   2.481325E+02   1.195301E+02   1.135066E+01   9.569468E+00   9.098689E-01   6.203360E+00   1.462809E+00   3.188630E+00   7.323810E-01   1.604304E-01   4.239336E-01   7.040385E-02   6.933467E-01   3.518187E-01   6.019304E-01   2.383042E+00   2.771201E+00   3.279088E-01   9.423870E-01   3.297882E-01   1.154949E+00   1.583813E+00   2.584150E-01   3.598967E-01   3.398806E-01   3.781103E-01   9.883485E-02   4.711102E-02   4.293585E-01
   2.631160E-02   1.699491E-01   1.170760E-01   8.784913E-03   3.970680E-03   4.967302E-03   8.726900E-03   2.447518E-01   4.646015E-01   6.219211E-01   2.473132E+01   1.625318E+00   4.550029E+00   7.508698E+00   1.094543E+01   3.911996E+01   7.495327E+00   8.921168E+00   4.915683E+01   1.446493E+02   6.649558E+02   2.922964E+02   4.227879E+01   4.407892E+01   6.641517E+01   3.188398E+00   8.866831E+00   2.821479E+01   5.138896E+00   4.710709E-01   4.272621E-01   1.004655E-01   4.269785E-02   1.661497E+00   9.846091E-01   5.096269E-01   4.443650E-01   3.724436E-01   1.213156E-01   4.327600E-02   2.100052E-01   2.951435E-01   3.846665E-01   3.451186E-01   2.024204E-01   1.347160E-01   2.391559E-02   4.243917E-02   9.946714E-02   1.333372E-01
   6.510120E-03   3.243432E-03   1.493898E-02   2.341919E-02   1.154469E-02   2.606720E-03   2.437150E-03   9.764004E-03   2.031326E-01   1.665552E+00   5.390753E+00   9.045423E+00   2.162893E+01   6.590176E+00   8.918610E+01   1.263754E+02   1.375483E+02   8.772790E+00   1.063829E+02   4.603926E+02   1.589409E+03   6.463751E+02   7.316484E+01   1.061690E+01   1.708747E+01   1.613408E+01   5.374421E+01   2.605692E+01   1.367123E+01   1.586488E+00   3.027236E+00   5.407204E-01   9.199847E-02   1.020696E+00   9.467930E-02   1.590430E-01   1.561463E-01   1.253699E-01   5.734411E-02   1.613122E-01   2.698178E-01   2.805798E-01   2.496954E-01   3.225264E-01   1.850906E-02   8.615039E-02   5.917672E-02   7.919998E-02   1.700393E-02   1.570213E-01
   7.237380E-04   1.264235E-03   2.896906E-03   2.781403E-02   1.017072E-02   4.153434E-03   2.920792E-03   3.071691E-02   1.122829E-01   2.485213E+00   1.060136E+01   5.035144E+00   3.608845E+01   4.158401E+01   3.953727E+00   3.695286E+01   5.616170E+01   1.942284E+02   2.023923E+02   3.158601E+02   4.472701E+02   1.420081E+02   3.743372E+01   1.692383E+01   6.736066E+00   2.726514E+01   8.037203E+00   4.367428E+00   4.652001E+00   4.642430E+00   3.718921E+00   2.288813E+00   4.005651E-01   1.403138E+00   1.976880E-01   1.529166E-01   9.760801E-02   3.014520E-01   5.786983E-02   3.969454E-01   3.839900E-01   2.297837E-01   1.122471E-01   5.705404E-02   2.524391E-02   4.374230E-02   2.989697E-02   8.095847E-03   8.118724E-03   1.887408E-02
   7.426436E-03   2.522710E-03   2.552017E-03   6.281040E-02   8.124377E-02   9.824495E-03   1.375023E-02   7.570894E-03   1.734261E-01   5.657341E+00   2.292435E+01   2.425106E+01   1.183520E+02   1.182666E+02   5.961031E+01   8.427971E+00   4.463723E+01   7.603324E+01   2.539140E+02   2.947346E+03   7.660941E+02   4.038233E+02   3.493091E+01   2.633011E+01   6.983128E+01   5.868438E+01   7.399065E+00   7.375082E+00   1.203548E+00   1.291085E+01   1.019495E+00   4.338510E-01   1.432405E-01   2.971098E-01   1.961496E-01   5.889262E-01   2.780957E-01   2.658444E-01   8.409225E-01   3.042868E-01   3.170290E-02   2.229924E-02   5.235154E-02   8.533907E-02   1.625538E-02   1.464314E-02   9.157641E-03   2.996140E-03   2.316030E-02   5.017185E-02
   5.740812E-02   1.247022E-01   3.616808E-02   6.620365E-02   1.375645E-01   1.645447E-01   1.028373E-01   1.290727E-02   1.694520E-01   4.545562E+00   3.826454E+01   3.527235E+01   1.856664E+02   1.796378E+02   2.172323E+01   7.749929E+00   2.473047E+01   1.532740E+02   2.336535E+02   3.241031E+03   8.398389E+02   2.237637E+03   1.253294E+03   7.029877E+02   4.788738E+02   7.691582E+01   1.016219E+01   1.700636E+01   6.313760E+00   9.145544E-01   9.547685E-01   2.086984E-01   6.778246E-01   2.357028E+00   1.462412E-01   8.769987E-01   2.344840E-01   4.542340E-02   2.229771E-01   1.977085E-01   1.554211E-01   2.806501E-01   2.007877E-02   5.256847E-02   1.657994E-03   1.101310E-02   4.194547E-03   9.045742E-03   1.574528E-02   1.767654E-02
   4.165115E-01   4.611081E-01   4.905083E-02   6.061822E-02   2.172589E-02   2.754569E-02   1.282589E-02   1.793167E-01   2.259327E+00   1.576969E+01   3.531166E+01   3.583197E+01   2.017278E+02   3.455822E+01   9.803163E+00   9.497111E+00   6.176975E+01   1.014581E+02   5.600532E+02   1.000000E+04   9.851413E+03   1.000000E+04   6.009008E+02   1.215713E+03   1.745171E+02   3.254975E+02   3.290267E+01   8.256695E+01   3.630138E+01   3.321461E+01   2.633605E+00   2.878820E+00   5.809216E+00   5.025353E+00   4.592141E-01   9.155028E-01   3.837151E-01   2.263972E-01   1.485354E-01   5.106151E-02   9.385666E-02   4.005905E-02   4.370450E-03   2.319904E-03   6.114598E-04   2.557031E-03   6.077284E-03   2.598214E-03   1.330891E-02   1.342493E-02
   7.029806E-02   1.608295E-02   3.459176E-02   2.897835E-02   5.389965E-02   3.461272E-02   5.552844E-02   1.412074E+00   1.754745E+00   1.048752E+00   3.324018E+00   9.244771E+01   6.664677E+01   3.889188E+01   3.568409E+01   1.597838E+01   5.256712E+01   3.052976E+02   8.126807E+02   1.000000E+04   6.186835E+03   6.991517E+03   1.674492E+03   1.580218E+03   2.325952E+02   7.734049E+01   6.945045E+01   8.128349E+01   5.176878E+01   6.780475E+01   1.199503E+02   7.662522E+00   8.190837E+00   1.218453E+00   8.261222E-01   3.103570E+00   1.980460E+00   1.707207E+00   8.750498E-01   5.725482E-02   1.341696E+00   1.681058E-01   9.677004E-03   1.597035E-03   1.318906E-03   4.116479E-03   1.265373E-03   2.480854E-03   2.609761E-02   4.135877E-02
   4.706010E-02   5.163469E-03   1.942085E-02   2.509924E-02   1.928149E-01   4.191933E-02   3.999192E-02   1.210357E+00   3.356235E+00   4.870808E-01   2.330844E+00   8.017372E+00   8.019135E+00   1.331756E+02   4.708662E+01   2.404771E+01   1.677869E+01   3.360535E+01   3.907212E+01   4.499763E+02   2.146363E+03   3.648662E+03   4.364783E+03   2.248921E+03   5.708124E+02   9.470108E+01   9.773127E+01   1.493904E+02   1.161143E+01   1.653850E+02   3.410065E+01   6.410822E+01   6.793240E+00   1.587433E+00   5.361294E+00   5.735354E+00   4.372529E+00   1.997348E+00   2.614172E+00   1.104195E+00   1.337278E+00   6.367292E-01   2.086883E-02   2.838662E-03   1.053086E-03   3.450362E-03   6.275322E-03   4.058959E-02   1.055773E-01   4.682796E-02
   3.755710E-02   3.086248E-02   3.172890E-02   7.241890E-02   1.455670E-01   2.672360E-01   9.523817E-02   1.191138E-01   1.060003E-01   1.691903E-01   2.292764E-01   7.865441E-01   3.247267E+00   7.534609E+00   1.904450E+01   4.301791E+00   1.933852E+00   3.361779E+00   4.691084E+01   3.275161E+02   2.855948E+02   5.907767E+02   8.499687E+02   6.052355E+02   1.728308E+02   8.824837E+01   2.375033E+01   4.131353E+01   6.355822E+01   1.367124E+02   2.221505E+02   3.243129E+01   2.324866E+01   3.813203E+01   2.572196E+00   3.362904E+00   2.232523E+00   4.853019E-01   9.716716E-01   3.815064E-01   2.570515E-01   7.756434E-02   1.042985E-02   2.478072E-03   4.395155E-04   1.745764E-03   3.583168E-03   5.452079E-02   5.882688E-02   2.586253E-02
   3.369606E-01   1.028110E-01   2.250766E-01   1.898346E-01   5.854360E-01   1.144635E-01   3.892491E-01   1.805512E-02   7.483147E-03   1.334849E-02   1.267907E-01   2.990928E+00   1.189045E+00   1.896415E+00   7.501928E+00   6.111035E+00   1.438329E+01   4.096085E+00   4.053567E+00   3.630631E+01   4.581253E+02   7.357928E+02   3.764050E+02   3.475968E+02   2.700230E+02   9.309005E+01   1.225515E+02   1.278740E+02   4.923253E+02   2.205054E+03   4.550232E+02   8.905539E+01   5.903190E+00   1.402560E+01   4.600203E+00   1.260350E+01   1.223648E+00   1.728559E+00   4.055161E-01   1.694975E-01   4.169576E-01   1.003904E-01   9.021826E-03   2.864822E-03   1.005026E-03   9.773470E-03   1.338900E-02   6.748194E-02   1.309369E-01   8.124906E-01
   1.021284E+00   2.252234E+00   1.258949E+00   8.736936E-01   2.658518E+00   1.136078E+00   3.201879E-01   1.225507E-01   4.588153E-02   5.854093E-02   1.475412E-01   6.552185E-01   8.675694E-01   2.190708E+00   1.655745E+01   1.410325E+01   1.134823E+01   8.185374E+00   2.685071E+00   5.311528E+00   5.732481E+01   1.940675E+02   1.630890E+02   1.858510E+02   9.941594E+01   1.243155E+03   7.177917E+02   1.096506E+02   5.812281E+01   9.664842E+01   2.815225E+02   1.243535E+01   1.137656E+00   3.113065E+00   3.300091E+00   4.348613E+00   3.399578E-01   1.039258E+00   4.189634E-01   2.907366E-01   5.753847E-02   9.354775E-03   6.971790E-03   8.492979E-04   6.800896E-04   2.535579E-02   1.922422E-02   1.044010E-02   8.695526E-02   7.965180E-02
   2.251306E+00   2.164048E+00   2.113400E-01   6.983363E-01   9.126520E-01   9.579825E-02   5.821159E-02   1.735995E-01   1.383277E-01   9.058318E-02   2.015080E-01   8.068164E-02   7.476380E-02   1.629966E-01   5.646175E-01   1.874456E+01   1.953946E+01   3.577786E+01   3.052542E+00   1.031198E+01   1.637277E+01   3.748126E+01   6.195046E+01   1.015844E+03   4.724715E+02   3.001627E+03   1.528341E+03   2.273809E+02   1.607715E+02   3.784998E+01   2.833734E+01   2.750715E+00   1.004170E+00   2.519281E+00   1.930080E+00   2.298499E+00   3.618300E+00   2.398145E+00   1.519673E-01   2.031860E-02   1.264718E-02   5.378205E-03   1.788475E-03   1.031443E-03   6.067030E-04   9.599892E-03   4.960848E-02   2.607856E-03   8.494121E-03   8.926983E-03
   4.928288E-01   6.146049E-02   1.357791E-01   4.598217E-02   2.787888E-02   1.162331E-01   4.077796E-02   1.443867E-01   1.331669E-01   9.597591E-02   2.180399E-01   1.085928E-01   2.431953E-01   1.070801E+00   4.306782E+00   4.302693E+00   1.622503E+01   3.395872E+01   2.940561E+01   7.483302E+00   1.936789E+01   7.422020E+01   5.239509E+02   1.006030E+03   2.937713E+02   4.314814E+02   5.864982E+02   1.488985E+02   2.180425E+02   3.828412E+01   6.101927E+01   3.470201E+00   6.166148E+00   2.618145E+00   4.574478E+00   6.568118E-01   3.683810E-01   4.271809E-01   5.665749E-02   2.307498E-02   4.701576E-03   4.864061E-04   7.688394E-03   3.392176E-02   8.315343E-03   9.128056E-03   8.266269E-03   5.607177E-03   4.783999E-03   1.123323E-02
   6.073288E-01   1.183833E-01   3.076230E-01   8.014312E-02   3.371627E-02   9.527126E-02   7.556282E-02   8.862391E-02   2.052660E-01   3.719653E-01   1.040463E+00   1.385291E-01   2.220320E-01   3.110533E+00   1.478543E+01   2.588550E+01   2.991699E+01   2.243948E+01   1.456460E+01   2.687762E+01   2.479688E+03   8.268021E+02   1.805953E+02   3.068474E+02   2.423999E+02   1.988798E+02   2.633881E+03   6.684752E+02   4.410621E+02   3.240128E+01   3.586908E+01   3.016673E+01   8.228303E+00   1.616348E+00   2.761983E-01   2.872175E-01   1.332113E-01   1.250501E-02   1.329050E-02   8.743579E-03   2.817541E-03   3.619852E-03   3.720858E-02   3.647876E-01   2.851540E-02   3.604447E-02   7.415979E-03   1.207947E-02   2.605725E-02   6.968428E-03
   1.916380E-01   1.000244E-01   9.746142E-02   1.664732E-01   3.899843E-02   3.932964E-02   1.215167E-02   1.280395E-02   5.232719E-01   4.304162E+00   2.803556E+00   1.905828E+00   8.525244E-01   2.508310E+01   1.809713E+01   1.599183E+01   2.224095E+01   5.060408E+01   1.290995E+01   1.324896E+02   2.758725E+03   3.582913E+03   1.108763E+02   1.292948E+02   7.251548E+01   6.200284E+01   1.805399E+02   4.451253E+01   2.262258E+02   2.241118E+01   1.488874E+02   2.888385E+01   3.400069E+00   2.750891E+00   5.290447E-01   4.468072E-02   2.282640E-02   4.634744E-02   1.146609E-01   7.877313E-02   1.977397E-01   2.679949E-02   4.099459E-02   1.041367E-01   2.724032E-02   3.316839E-02   5.199900E-02   3.662549E-02   1.441336E-01   3.128016E-02
   2.802040E-01   2.938966E-01   5.123302E-01   6.156539E-01   5.111678E-01   1.172487E-01   1.570976E-01   1.111140E-01   1.942531E+00   3.065697E+00   4.687212E+00   1.107157E+01   2.352977E+00   1.473930E+01   1.175359E+02   3.501379E+01   6.190168E+01   1.515081E+01   2.051091E+01   5.089500E+01   4.817393E+02   3.006601E+02   2.178246E+02   2.874295E+02   1.016075E+02   2.222574E+01   1.980331E+01   1.370768E+02   4.689988E+01   2.559082E+01   5.164566E+01   7.099898E+01   1.123444E+01   1.882692E+01   7.848572E-01   1.170681E-01   2.184247E-01   3.684715E-01   3.459610E-01   1.431047E-01   2.166668E-01   5.220037E-02   1.366038E-01   3.322015E-02   3.532401E-02   1.869117E-01   5.136051E-01   5.065001E-02   8.446744E-02   2.871000E-02