# BAS6 package for  MODFLOW-NWT, generated by Flopy.
FREE
INTERNAL               1     (FREE) -1 #ibound_layer_0                
         1         1         1         1         1         1         1         1         1         1         1         1         1         1         1         1         1         1         1         1         1         1         1         1         1         1         1         1         1         1         1         1         1         1         1         1         1         1         1         1         1         1         1         1         1         1         1         1         1         1
         1         1         1         1         1         1         1         1         1         1         1         1         1         1         1         1         1         1         1         1         1         1         1         1         1         1         1         1         1         1         1         1         1         1         1         1         1         1         1         1         1         1         1         1         1         1         1         1         1         1
         1         1         1         1         1         1         1         1         1         1         1         1         1         1         1         1         1         1         1         1         1         1         1         1         1         1         1         1         1         1         1         1         1         1         1         1         1         1         1         1         1         1         1         1         1         1         1         1         1         1
         1         1         1         1         1         1         1         1         1         1         1         1         1         1         1         1         1         1         1         1         1         1         1         1         1         1         1         1         1         1         1         1         1         1         1         1         1         1         1         1         1         1         1         1         1         1         1         1         1         1
         1         1         1         1         1         1         1         1         1         1         1         1         1         1         1         1         1         1         1         1         1         1         1         1         1         1         1         1         1         1         1         1         1         1         1         1         1         1         1         1         1         1         1         1         1         1         1         1         1         1
         1         1         1         1         1         1         1         1         1         1         1         1         1         1         1         1         1         1         1         1         1         1         1         1         1         1         1         1         1         1         1         1         1         1         1         1         1         1         1         1         1         1         1         1         1         1         1         1         1         1
         1         1         1         1         1         1         1         1         1         1         1         1         1         1         1         1         1         1         1         1         1         1         1         1         1         1         1         1         1         1         1         1         1         1         1         1         1         1         1         1         1         1         1         1         1         1         1         1         1         1
         1         1         1         1         1         1         1         1         1         1         1         1         1         1         1         1         1         1         1         1         1         1         1         1         1         1         1         1         1         1         1         1         1         1         1         1         1         1         1         1         1         1         1         1         1         1         1         1         1         1
         1         1         1         1         1         1         1         1         1         1         1         1         1         1         1         1         1         1         1         1         1         1         1         1         1         1         1         1         1         1         1         1         1         1         1         1         1         1         1         1         1         1         1         1         1         1         1         1         1         1
         1         1         1         1         1         1         1         1         1         1         1         1         1         1         1         1         1         1         1         1         1         1         1         1         1         1         1         1         1         1         1         1         1         1         1         1         1         1         1         1         1         1         1         1         1         1         1         1         1         1
         1         1         1         1         1         1         1         1         1         1         1         1         1         1         1         1         1         1         1         1         1         1         1         1         1         1         1         1         1         1         1         1         1         1         1         1         1         1         1         1         1         1         1         1         1         1         1         1         1         1
         1         1         1         1         1         1         1         1         1         1         1         1         1         1         1         1         1         1         1         1         1         1         1         1         1         1         1         1         1         1         1         1         1         1         1         1         1         1         1         1         1         1         1         1         1         1         1         1         1         1
         1         1         1         1         1         1         1         1         1         1         1         1         1         1         1         1         1         1         1         1         1         1         1         1         1         1         1         1         1         1         1         1         1         1         1         1         1         1         1         1         1         1         1         1         1         1         1         1         1         1
         1         1         1         1         1         1         1         1         1         1         1         1         1         1         1         1         1         1         1         1         1         1         1         1         1         1         1         1         1         1         1         1         1         1         1         1         1         1         1         1         1         1         1         1         1         1         1         1         1         1
         1         1         1         1         1         1         1         1         1         1         1         1         1         1         1         1         1         1         1         1         1         1         1         1         1         1         1         1         1         1         1         1         1         1         1         1         1         1         1         1         1         1         1         1         1         1         1         1         1         1
         1         1         1         1         1         1         1         1         1         1         1         1         1         1         1         1         1         1         1         1         1         1         1         1         1         1         1         1         1         1         1         1         1         1         1         1         1         1         1         1         1         1         1         1         1         1         1         1         1         1
         1         1         1         1         1         1         1         1         1         1         1         1         1         1         1         1         1         1         1         1         1         1         1         1         1         1         1         1         1         1         1         1         1         1         1         1         1         1         1         1         1         1         1         1         1         1         1         1         1         1
         1         1         1         1         1         1         1         1         1         1         1         1         1         1         1         1         1         1         1         1         1         1         1         1         1         1         1         1         1         1         1         1         1         1         1         1         1         1         1         1         1         1         1         1         1         1         1         1         1         1
         1         1         1         1         1         1         1         1         1         1         1         1         1         1         1         1         1         1         1         1         1         1         1         1         1         1         1         1         1         1         1         1         1         1         1         1         1         1         1         1         1         1         1         1         1         1         1         1         1         1
         1         1         1         1         1         1         1         1         1         1         1         1         1         1         1         1         1         1         1         1         1         1         1         1         1         1         1         1         1         1         1         1         1         1         1         1         1         1         1         1         1         1         1         1         1         1         1         1         1         1
         1         1         1         1         1         1         1         1         1         1         1         1         1         1         1         1         1         1         1         1         1         1         1         1         1         1         1         1         1         1         1         1         1         1         1         1         1         1         1         1         1         1         1         1         1         1         1         1         1         1
         1         1         1         1         1         1         1         1         1         1         1         1         1         1         1         1         1         1         1         1         1         1         1         1         1         1         1         1         1         1         1         1         1         1         1         1         1         1         1         1         1         1         1         1         1         1         1         1         1         1
         1         1         1         1         1         1         1         1         1         1         1         1         1         1         1         1         1         1         1         1         1         1         1         1         1         1         1         1         1         1         1         1         1         1         1         1         1         1         1         1         1         1         1         1         1         1         1         1         1         1
         1         1         1         1         1         1         1         1         1         1         1         1         1         1         1         1         1         1         1         1         1         1         1         1         1         1         1         1         1         1         1         1         1         1         1         1         1         1         1         1         1         1         1         1         1         1         1         1         1         1
         1         1         1         1         1         1         1         1         1         1         1         1         1         1         1         1         1         1         1         1         1         1         1         1         1         1         1         1         1         1         1         1         1         1         1         1         1         1         1         1         1         1         1         1         1         1         1         1         1         1
         1         1         1         1         1         1         1         1         1         1         1         1         1         1         1         1         1         1         1         1         1         1         1         1         1         1         1         1         1         1         1         1         1         1         1         1         1         1         1         1         1         1         1         1         1         1         1         1         1         1
         1         1         1         1         1         1         1         1         1         1         1         1         1         1         1         1         1         1         1         1         1         1         1         1         1         1         1         1         1         1         1         1         1         1         1         1         1         1         1         1         1         1         1         1         1         1         1         1         1         1
         1         1         1         1         1         1         1         1         1         1         1         1         1         1         1         1         1         1         1         1         1         1         1         1         1         1         1         1         1         1         1         1         1         1         1         1         1         1         1         1         1         1         1         1         1         1         1         1         1         1
         1         1         1         1         1         1         1         1         1         1         1         1         1         1         1         1         1         1         1         1         1         1         1         1         1         1         1         1         1         1         1         1         1         1         1         1         1         1         1         1         1         1         1         1         1         1         1         1         1         1
         1         1         1         1         1         1         1         1         1         1         1         1         1         1         1         1         1         1         1         1         1         1         1         1         1         1         1         1         1         1         1         1         1         1         1         1         1         1         1         1         1         1         1         1         1         1         1         1         1         1
         1         1         1         1         1         1         1         1         1         1         1         1         1         1         1         1         1         1         1         1         1         1         1         1         1         1         1         1         1         1         1         1         1         1         1         1         1         1         1         1         1         1         1         1         1         1         1         1         1         1
         1         1         1         1         1         1         1         1         1         1         1         1         1         1         1         1         1         1         1         1         1         1         1         1         1         1         1         1         1         1         1         1         1         1         1         1         1         1         1         1         1         1         1         1         1         1         1         1         1         1
         1         1         1         1         1         1         1         1         1         1         1         1         1         1         1         1         1         1         1         1         1         1         1         1         1         1         1         1         1         1         1         1         1         1         1         1         1         1         1         1         1         1         1         1         1         1         1         1         1         1
         1         1         1         1         1         1         1         1         1         1         1         1         1         1         1         1         1         1         1         1         1         1         1         1         1         1         1         1         1         1         1         1         1         1         1         1         1         1         1         1         1         1         1         1         1         1         1         1         1         1
         1         1         1         1         1         1         1         1         1         1         1         1         1         1         1         1         1         1         1         1         1         1         1         1         1         1         1         1         1         1         1         1         1         1         1         1         1         1         1         1         1         1         1         1         1         1         1         1         1         1
         1         1         1         1         1         1         1         1         1         1         1         1         1         1         1         1         1         1         1         1         1         1         1         1         1         1         1         1         1         1         1         1         1         1         1         1         1         1         1         1         1         1         1         1         1         1         1         1         1         1
         1         1         1         1         1         1         1         1         1         1         1         1         1         1         1         1         1         1         1         1         1         1         1         1         1         1         1         1         1         1         1         1         1         1         1         1         1         1         1         1         1         1         1         1         1         1         1         1         1         1
         1         1         1         1         1         1         1         1         1         1         1         1         1         1         1         1         1         1         1         1         1         1         1         1         1         1         1         1         1         1         1         1         1         1         1         1         1         1         1         1         1         1         1         1         1         1         1         1         1         1
         1         1         1         1         1         1         1         1         1         1         1         1         1         1         1         1         1         1         1         1         1         1         1         1         1         1         1         1         1         1         1         1         1         1         1         1         1         1         1         1         1         1         1         1         1         1         1         1         1         1
         1         1         1         1         1         1         1         1         1         1         1         1         1         1         1         1         1         1         1         1         1         1         1         1         1         1         1         1         1         1         1         1         1         1         1         1         1         1         1         1         1         1         1         1         1         1         1         1         1         1
         1         1         1         1         1         1         1         1         1         1         1         1         1         1         1         1         1         1         1         1         1         1         1         1         1         1         1         1         1         1         1         1         1         1         1         1         1         1         1         1         1         1         1         1         1         1         1         1         1         1
         1         1         1         1         1         1         1         1         1         1         1         1         1         1         1         1         1         1         1         1         1         1         1         1         1         1         1         1         1         1         1         1         1         1         1         1         1         1         1         1         1         1         1         1         1         1         1         1         1         1
         1         1         1         1         1         1         1         1         1         1         1         1         1         1         1         1         1         1         1         1         1         1         1         1         1         1         1         1         1         1         1         1         1         1         1         1         1         1         1         1         1         1         1         1         1         1         1         1         1         1
         1         1         1         1         1         1         1         1         1         1         1         1         1         1         1         1         1         1         1         1         1         1         1         1         1         1         1         1         1         1         1         1         1         1         1         1         1         1         1         1         1         1         1         1         1         1         1         1         1         1
         1         1         1         1         1         1         1         1         1         1         1         1         1         1         1         1         1         1         1         1         1         1         1         1         1         1         1         1         1         1         1         1         1         1         1         1         1         1         1         1         1         1         1         1         1         1         1         1         1         1
         1         1         1         1         1         1         1         1         1         1         1         1         1         1         1         1         1         1         1         1         1         1         1         1         1         1         1         1         1         1         1         1         1         1         1         1         1         1         1         1         1         1         1         1         1         1         1         1         1         1
         1         1         1         1         1         1         1         1         1         1         1         1         1         1         1         1         1         1         1         1         1         1         1         1         1         1         1         1         1         1         1         1         1         1         1         1         1         1         1         1         1         1         1         1         1         1         1         1         1         1
         1         1         1         1         1         1         1         1         1         1         1         1         1         1         1         1         1         1         1         1         1         1         1         1         1         1         1         1         1         1         1         1         1         1         1         1         1         1         1         1         1         1         1         1         1         1         1         1         1         1
         1         1         1         1         1         1         1         1         1         1         1         1         1         1         1         1         1         1         1         1         1         1         1         1         1         1         1         1         1         1         1         1         1         1         1         1         1         1         1         1         1         1         1         1         1         1         1         1         1         1
         1         1         1         1         1         1         1         1         1         1         1         1         1         1         1         1         1         1         1         1         1         1         1         1         1         1         1         1         1         1         1         1         1         1         1         1         1         1         1         1         1         1         1         1         1         1         1         1         1         1
   -999.99
INTERNAL               1  (50E15.6) -1 #strt layer 1                  
   4.499900E+01   4.499900E+01   4.499900E+01   4.499900E+01   4.499900E+01   4.499900E+01   4.499802E+01   4.499759E+01   4.499757E+01   4.499757E+01   4.499758E+01   4.499757E+01   4.499794E+01   4.499794E+01   4.499674E+01   4.499635E+01   4.499401E+01   4.499427E+01   4.499353E+01   4.499195E+01   4.499005E+01   4.499128E+01   4.499261E+01   4.499498E+01   4.499708E+01   4.499713E+01   4.499634E+01   4.499696E+01   4.499772E+01   4.499773E+01   4.499794E+01   4.499793E+01   4.499788E+01   4.499788E+01   4.499788E+01   4.499786E+01   4.499742E+01   4.499741E+01   4.499695E+01   4.499694E+01   4.499695E+01   4.499755E+01   4.499755E+01   4.499755E+01   4.499755E+01   4.499754E+01   4.499792E+01   4.499802E+01   4.499803E+01   4.499802E+01
   4.499900E+01   4.499900E+01   4.499900E+01   4.499900E+01   4.499900E+01   4.499862E+01   4.499802E+01   4.499757E+01   4.499757E+01   4.499659E+01   4.499653E+01   4.499653E+01   4.499647E+01   4.499685E+01   4.499511E+01   4.499479E+01   4.499215E+01   4.499140E+01   4.499074E+01   4.498637E+01   4.498046E+01   4.498173E+01   4.498296E+01   4.498849E+01   4.499339E+01   4.499337E+01   4.499335E+01   4.499334E+01   4.499463E+01   4.499537E+01   4.499670E+01   4.499735E+01   4.499774E+01   4.499730E+01   4.499780E+01   4.499780E+01   4.499741E+01   4.499689E+01   4.499690E+01   4.499648E+01   4.499657E+01   4.499755E+01   4.499755E+01   4.499755E+01   4.499755E+01   4.499754E+01   4.499792E+01   4.499802E+01   4.499803E+01   4.499803E+01
   4.499900E+01   4.499900E+01   4.499900E+01   4.499900E+01   4.499856E+01   4.499803E+01   4.499759E+01   4.499660E+01   4.499654E+01   4.499609E+01   4.499509E+01   4.499498E+01   4.499492E+01   4.499100E+01   4.498554E+01   4.498603E+01   4.498495E+01   4.498415E+01   4.498431E+01   4.497635E+01   4.496541E+01   4.496703E+01   4.496973E+01   4.497403E+01   4.498126E+01   4.497358E+01   4.498361E+01   4.498743E+01   4.498618E+01   4.498689E+01   4.498956E+01   4.499089E+01   4.499356E+01   4.499406E+01   4.499663E+01   4.499671E+01   4.499678E+01   4.499641E+01   4.499648E+01   4.499648E+01   4.499555E+01   4.499653E+01   4.499754E+01   4.499755E+01   4.499755E+01   4.499754E+01   4.499792E+01   4.499803E+01   4.499803E+01   4.499802E+01
   4.499900E+01   4.499900E+01   4.499900E+01   4.499900E+01   4.499857E+01   4.499759E+01   4.499660E+01   4.499615E+01   4.499609E+01   4.499510E+01   4.499408E+01   4.499256E+01   4.498982E+01   4.498281E+01   4.497868E+01   4.497606E+01   4.497120E+01   4.496864E+01   4.496597E+01   4.495734E+01   4.494000E+01   4.493950E+01   4.493891E+01   4.494300E+01   4.495878E+01   4.494567E+01   4.495693E+01   4.496680E+01   4.495840E+01   4.496688E+01   4.497111E+01   4.497117E+01   4.498188E+01   4.498898E+01   4.499390E+01   4.499441E+01   4.499414E+01   4.499478E+01   4.499491E+01   4.499447E+01   4.499407E+01   4.499409E+01   4.499653E+01   4.499755E+01   4.499755E+01   4.499754E+01   4.499792E+01   4.499803E+01   4.499803E+01   4.499856E+01
   4.499900E+01   4.499900E+01   4.499900E+01   4.499856E+01   4.499803E+01   4.499760E+01   4.499654E+01   4.499609E+01   4.499509E+01   4.499413E+01   4.499158E+01   4.498802E+01   4.498089E+01   4.497480E+01   4.497201E+01   4.496276E+01   4.494930E+01   4.494564E+01   4.494321E+01   4.492834E+01   4.489621E+01   4.488768E+01   4.488110E+01   4.489367E+01   4.491341E+01   4.489014E+01   4.489673E+01   4.490598E+01   4.491175E+01   4.493283E+01   4.494777E+01   4.495263E+01   4.496526E+01   4.497956E+01   4.498859E+01   4.499093E+01   4.498928E+01   4.498938E+01   4.498961E+01   4.499013E+01   4.498966E+01   4.499066E+01   4.499415E+01   4.499657E+01   4.499755E+01   4.499754E+01   4.499792E+01   4.499803E+01   4.499802E+01   4.499900E+01
   4.499900E+01   4.499900E+01   4.499900E+01   4.499894E+01   4.499857E+01   4.499759E+01   4.499660E+01   4.499609E+01   4.499510E+01   4.499306E+01   4.498916E+01   4.498209E+01   4.497344E+01   4.496530E+01   4.495854E+01   4.494339E+01   4.492770E+01   4.492342E+01   4.490991E+01   4.487239E+01   4.484831E+01   4.484444E+01   4.484970E+01   4.484591E+01   4.483643E+01   4.482948E+01   4.483202E+01   4.484870E+01   4.486543E+01   4.488876E+01   4.491598E+01   4.493570E+01   4.494341E+01   4.496140E+01   4.497894E+01   4.498498E+01   4.498396E+01   4.498363E+01   4.498186E+01   4.498249E+01   4.498439E+01   4.498687E+01   4.498974E+01   4.499416E+01   4.499657E+01   4.499755E+01   4.499792E+01   4.499802E+01   4.499856E+01   4.499900E+01