# UPW package for  MODFLOW-NWT, generated by Flopy.
        55    -1E+30         0         0 
         1
         0
   1.000000E+00
         0
         0
INTERNAL               1  (50E15.6) -1 #hk layer 1                    
   1.002738E+00   1.820471E+00   1.150244E+00   2.159312E-01   1.134463E-01   5.332876E-01   1.312640E-01   4.685932E-01   1.743331E+00   4.874541E-01   3.770584E-01   2.045458E-01   1.882453E-01   1.181595E-01   3.781117E-01   4.099630E-01   8.291312E-01   3.599597E-01   3.245621E-01   2.008263E-01   1.011450E-01   5.446995E-02   5.205037E-02   4.101007E-02   5.807874E-02   7.401298E-02   1.639531E-01   5.182250E-02   6.242221E-02   1.241049E-01   3.676459E-02   2.136280E-01   5.419192E-01   3.089370E-01   2.463726E-01   1.642392E+00   3.707936E+00   3.449386E+00   4.896117E+00   1.250959E+01   1.005943E+01   7.178885E+00   3.282814E+01   6.236719E+01   4.767834E+01   1.741291E+02   6.835264E+00   1.588904E+01   7.888982E+00   3.749496E+00
   3.532662E+00   2.427140E+00   2.031928E-01   3.857788E-01   2.075673E-01   1.164359E-01   5.208724E-01   9.599857E-01   2.871468E+00   9.607717E-01   1.003522E+00   3.228053E-01   5.522400E-01   4.736003E-02   5.208185E-02   7.190523E-02   4.288033E-01   3.641396E-01   1.827152E-01   2.943667E-01   2.875637E-01   1.295765E-01   1.643720E-01   9.582182E-02   4.607351E-02   2.978848E-02   2.697615E-01   1.515635E-01   1.679175E-01   1.096482E-01   5.323697E-02   4.199464E-02   9.560952E-02   1.498253E-01   6.204762E-02   3.535627E-01   6.096337E-01   1.544613E+00   6.484048E+00   3.018227E+00   1.587635E+00   1.142704E+01   1.094710E+01   1.690273E+01   1.104269E+02   4.974149E+01   9.358174E+01   1.235889E+01   6.122756E+01   2.644347E+01
   1.270177E+00   4.443047E-01   2.482854E-01   1.362721E-01   2.586744E-01   2.096466E-01   1.646746E-01   1.144995E+00   1.155485E+00   1.132920E+00   1.667253E+00   1.327928E+00   8.342561E-01   1.206910E-01   7.635426E-01   1.857123E-01   5.213106E-01   3.545539E-01   9.471157E-02   1.485561E-01   5.987052E-01   3.832725E-01   5.918843E-01   1.502076E-01   7.945129E-02   3.140196E-01   1.147648E-01   3.975276E-01   1.145198E-01   1.629159E-01   7.401921E-02   7.182382E-02   7.846116E-02   2.258468E-01   7.723243E-02   1.204209E-01   1.444869E-01   6.108926E-01   1.596032E+00   4.104378E+00   4.920061E+00   9.013203E-01   3.543890E+00   1.199047E+01   1.175791E+02   1.231405E+02   2.464724E+01   5.661049E+01   5.234576E+01   3.361995E+01
   3.560227E+00   6.385271E-01   2.744437E-01   6.622688E-02   5.388687E-01   8.475428E-01   1.396986E+00   1.737752E+01   1.886313E+00   1.035778E+00   1.203097E+00   1.549281E+00   2.019045E-01   4.440702E-01   9.965114E-01   6.319892E-01   3.306779E-01   3.515222E-01   1.563369E-01   2.354632E-01   4.887931E-01   2.338853E-01   1.951910E-01   2.331522E-01   9.837757E-02   2.358634E-01   1.099787E-01   5.333035E-02   1.461848E-01   2.094607E-01   2.690922E-01   3.467352E-01   3.173689E-01   3.176447E-01   9.923226E-02   2.680531E-01   1.381092E-01   2.001154E-01   5.473862E-01   1.178991E+00   2.705722E+00   1.467693E+00   2.013006E+00   1.643979E+01   5.997576E+01   1.922083E+01   5.992725E+00   1.506750E+01   1.520490E+01   2.070340E+00
   9.111003E-01   2.060625E-01   3.231770E-01   4.944388E-01   6.175727E-01   1.184171E+00   1.642062E+00   1.104254E+01   8.350801E+00   3.613106E+00   2.280984E+00   9.418507E-01   5.749866E-01   8.613849E-01   2.702392E+00   3.787182E-01   6.812921E-01   6.115400E-01   5.387303E-01   1.202477E-01   7.158559E-01   4.487526E-01   1.465922E+00   6.530582E-01   7.784049E-02   5.602579E-01   1.777060E-01   1.735822E-01   6.310490E-01   2.505577E-01   2.756385E-01   2.255802E+00   2.080903E-01   2.175228E-01   1.452701E-01   3.496644E-01   6.065375E-01   7.974613E-01   3.116282E-01   3.533654E-01   2.058979E+00   3.762248E+00   5.634955E-01   2.464269E+00   4.579865E+00   2.658056E+01   6.870346E+00   5.665435E+00   8.190625E+00   5.482176E-01
   4.235371E+00   6.167301E-01   9.118731E-01   9.057659E-01   8.306383E-01   1.184032E+00   1.278634E+00   2.602866E+00   1.042952E+01   1.876034E+00   2.604865E+00   2.304928E+00   2.964886E+00   1.277849E+00   4.645654E-01   7.692745E-01   1.488451E+00   9.921681E-01   2.349390E-01   2.278406E-01   8.661819E-01   1.034627E+00   1.707298E+00   3.086418E-01   3.347802E-01   7.947425E-01   1.944956E+00   9.570864E-01   5.453866E-01   3.326116E-01   6.669064E-01   8.383902E-01   9.807913E-01   2.516185E-01   1.054167E-01   1.992202E-01   1.088887E+00   5.150115E-01   2.713333E+00   2.862028E+00   4.081490E+00   2.930792E+00   9.522400E-01   5.073404E-01   2.012857E+00   2.195352E+00   1.400912E+00   1.313327E+00   3.222252E+00   1.137750E+00
   1.453367E+00   2.545561E-01   1.047761E+00   8.219421E-01   2.045549E+00   7.337158E-01   4.592338E-01   7.427418E-01   7.540151E-01   7.635558E+00   9.297903E-01   6.118928E-01   1.879969E+00   4.732614E+00   2.405638E+00   4.567926E-01   3.275548E+00   8.821989E-01   3.933302E-01   9.454250E-01   3.532443E+00   2.663038E+00   9.488984E-01   2.533582E+00   1.077701E+00   4.409027E+00   1.343591E+00   7.097446E-01   4.217695E+00   1.740836E+00   9.486494E-01   1.352650E+00   1.054091E+00   3.700950E-01   2.603080E-01   2.522712E-01   9.846162E-01   2.090430E+00   1.523875E+00   2.553507E+00   3.879608E+00   2.850139E+00   1.361856E+00   5.322453E-01   5.077351E-01   1.672530E+00   3.569261E-01   5.456694E-01   2.709298E+00   3.444589E+00
   1.602849E+01   4.897341E+00   2.418108E+00   3.533692E-01   2.071181E-01   7.933798E-01   8.409938E-01   2.082106E+00   4.953107E+00   9.855337E-01   1.391205E+00   3.938825E-01   2.922095E-01   1.274713E+00   2.061152E+00   3.909195E+00   1.426609E+00   8.398615E-01   3.753959E+00   3.798548E+00   1.338389E+01   5.747634E+00   7.175086E-01   3.949338E+00   8.698122E+00   1.339898E+01   4.685774E+00   1.898202E+00   3.191827E+00   7.363944E+00   8.313807E-01   8.884278E-01   2.312063E+00   6.252553E-01   7.125123E-01   2.726885E-01   7.519394E-01   9.390091E-01   2.614402E+00   6.398190E+00   2.237484E+00   2.657834E+00   2.013588E+00   1.223187E+00   4.652705E-01   1.198835E+00   4.695660E+00   5.562340E+00   1.054283E+01   2.800783E+00
   3.755267E+01   3.869181E+00   5.079496E+00   5.701451E-01   3.764018E-01   3.397702E-01   3.041980E-01   1.439487E+00   1.097971E+00   7.450779E-01   6.327471E-01   4.297481E-01   2.911505E-01   1.841330E+00   1.335761E+00   3.368123E+00   2.974386E+00   2.198095E+00   2.567039E+00   9.541929E-01   3.502638E+00   3.266236E+00   3.323356E+00   1.526441E+01   7.093225E+00   7.100077E+00   2.884383E+01   1.695945E+00   2.642768E+00   3.363214E+00   4.358386E-01   3.127948E+00   1.828885E+00   6.148027E-01   6.578898E-01   1.113480E+00   8.042024E-01   9.970315E-01   5.445320E+00   1.472672E+01   4.405741E+00   3.287510E+00   1.426322E+00   6.880727E-01   6.997130E-01   1.519203E+00   2.658900E+00   2.451113E+00   1.395107E+00   7.788405E-01
   2.432908E+01   1.074645E+01   1.725146E+01   2.087304E+00   2.941893E+00   3.575369E-01   1.962111E-01   6.172204E-01   2.879153E-01   5.995164E-01   4.626623E-01   2.081296E+00   1.901932E+00   4.204670E+00   3.433426E+00   1.492385E+00   8.578240E-01   1.446287E+01   9.829410E+00   6.055273E+00   2.109052E+00   6.930127E-01   6.416442E+00   8.076321E+00   3.126388E+00   1.935328E+00   1.281944E+00   7.302678E-01   4.161435E+00   2.589385E+00   1.595849E+00   4.343224E+00   7.850133E+00   1.716209E+00   2.744025E+00   3.399011E+00   5.534005E+00   8.483366E+00   6.178327E+00   8.987956E+00   3.859997E+00   5.472772E+00   4.927864E-01   4.557335E-01   2.796992E-01   2.009197E-01   9.489934E-01   6.697312E-01   2.926468E-01   6.075463E-01
   3.066313E+01   5.870721E+01   2.066979E+01   2.873538E+00   1.402282E+00   8.444179E-01   6.601526E-01   1.984764E-01   3.408487E-01   2.599914E-01   1.341221E+00   9.440809E-01   7.000962E-01   2.699607E+00   8.561050E+00   3.533361E+00   2.949226E+00   4.618245E+00   5.910076E+00   3.241451E+01   2.351327E+00   3.010705E+00   1.095367E+01   7.810404E+00   6.510493E+00   3.557019E+00   1.030588E+00   3.655428E+00   8.874642E+00   1.974710E+00   7.760561E-01   1.102879E+00   1.182803E+00   1.511142E+00   2.733690E+00   2.373625E+00   4.454329E+00   1.042947E+01   6.390516E+00   1.336865E+01   2.767099E+01   2.691502E+00   4.207566E-01   4.022197E-01   8.014178E-01   7.757083E-02   6.296022E-02   1.216475E-01   3.896368E-01   2.274140E-01
   3.194229E+01   2.639197E+01   4.341451E+00   1.420153E+00   4.892383E-01   7.806149E-01   4.779474E-01   9.302449E-02   1.571961E-01   4.357795E-01   2.593513E-01   3.144867E-01   4.238762E-01   1.378987E+00   3.327989E+00   9.604614E+00   1.224932E+00   4.021886E+00   2.742252E+00   6.538389E+00   3.356467E+00   9.531231E+00   6.380241E+00   8.074156E+00   3.468216E+00   1.269319E+00   5.480830E-01   1.171063E+01   3.760982E+01   1.251599E+01   1.442557E+00   3.762820E-01   2.393878E-01   8.626519E-01   4.123770E-01   7.720865E-01   1.195197E+01   9.958963E+00   4.066090E+00   9.206284E+00   2.705004E+00   1.977230E+00   1.062382E+00   9.303217E-01   6.201630E-01   3.571840E-01   2.059406E-01   4.257938E-01   4.820722E-01   1.808824E-01
   4.820131E+01   2.630896E+01   1.798392E+01   2.249781E+00   6.008146E-01   1.741449E+00   4.050051E-01   1.419508E-01   9.814247E-02   3.692460E-01   1.297184E+00   1.163955E+00   7.151297E-01   1.604877E+00   1.294731E+00   4.298962E+00   6.705059E+00   2.188760E+00   2.391745E+00   1.819556E+00   1.853479E+01   3.415858E+01   3.355012E+01   8.968273E+00   3.743379E+00   1.509686E+01   1.981975E+00   1.494604E+01   1.601088E+01   2.281396E+00   5.150161E-01   2.253960E-01   2.735042E-01   6.116874E-01   3.397667E-01   5.292307E+00   4.935308E+00   2.627944E+00   8.793318E+00   2.834966E+00   2.523987E+00   8.546242E-01   1.254427E+00   7.359026E-01   1.704615E+00   1.977483E+00   3.977448E-01   3.572054E-01   1.268197E+00   1.149784E-01
   5.839300E+01   1.214071E+01   1.053903E+00   6.052975E-01   4.626998E-01   9.526929E-01   5.204251E-01   1.089686E-01   5.131460E-01   7.760248E-01   3.408296E-01   4.892123E-01   4.855807E-01   4.047041E-01   1.246922E+00   5.930082E-01   4.443543E+00   1.347240E+01   4.250652E+00   9.874188E+00   1.377630E+01   5.485431E+01   3.972908E+01   7.310333E+00   2.045350E+01   8.657814E+00   5.594937E+00   2.547474E+01   6.682821E+00   4.569078E+00   8.510540E-01   1.152315E+00   1.648007E+00   1.168613E+00   4.211133E+00   1.005827E+01   2.029672E+00   1.117515E+00   4.905611E-01   1.011373E+00   7.372099E-01   1.479727E+00   7.932308E-01   7.192110E-01   3.679798E+00   1.236134E+00   3.202426E-01   7.143648E-01   9.691896E-01   2.808626E-01
   2.310230E+00   3.303462E+00   1.132623E+00   3.430918E-01   3.347960E-01   1.627883E-01   5.513375E-01   2.454028E-01   1.952764E+00   1.856777E+00   1.891036E-01   6.198563E-01   1.638283E+00   8.150551E-01   4.793501E-01   3.793483E-01   4.860249E-01   5.104043E+00   3.525975E+00   9.403414E+00   1.885266E+01   7.317880E+01   3.729141E+01   3.897052E+01   1.776010E+02   1.268678E+02   1.023169E+01   2.062110E+01   9.975503E+00   1.262921E+01   1.480539E+01   3.219012E+00   1.343027E+01   4.974449E+00   5.514524E+00   4.720668E+00   2.151867E+00   1.407603E+00   4.005477E-01   7.072182E-01   9.059861E-01   1.109759E+00   2.408679E+00   1.161664E+01   3.142092E+00   5.195602E+00   1.026394E+00   4.001189E-01   1.355717E+00   5.525261E-01
   2.761708E+00   2.328755E+00   5.641671E-01   1.244127E+00   1.535712E-01   1.327015E-01   5.258803E-01   3.313311E-01   6.242847E-01   3.980442E-01   1.290276E-01   1.041573E-01   6.668534E-01   5.673309E-01   3.442543E-01   3.717250E-01   4.755674E-01   8.200810E-01   1.520340E+00   9.184237E+00   4.182916E+01   3.124463E+01   1.699367E+02   1.468294E+02   2.444951E+02   4.848956E+01   8.061726E+01   4.735722E+01   3.652875E+01   1.795742E+01   2.635242E+01   1.563534E+01   2.684388E+01   1.280363E+01   2.913277E+00   2.128299E+00   2.848213E+00   2.088378E+00   5.259921E+00   5.227439E-01   6.371923E-01   1.110062E+00   2.196819E+00   1.286764E+01   1.111970E+01   6.576025E+00   1.248098E+00   1.390947E+00   8.057348E-01   3.874870E-01
   8.519276E-01   2.141519E+00   2.230725E+00   1.592773E+00   8.462259E-01   1.945884E-01   2.118554E+00   1.350449E+00   8.270786E-01   3.406446E-01   2.391932E-01   3.085751E-01   4.232248E-01   9.032010E-01   2.344500E-01   2.392799E-01   7.101793E-01   8.871695E-01   9.379322E-01   1.694436E+00   2.701345E+00   2.968977E+01   2.472913E+02   2.016726E+02   3.838259E+02   7.307792E+01   4.622215E+01   8.349076E+01   3.858377E+01   2.308855E+01   2.676845E+01   5.850774E+01   2.455171E+01   8.914228E+00   1.670517E+00   1.065618E+00   5.444581E+00   5.416484E+00   2.286860E+01   1.565823E+01   6.533448E+00   4.199669E+00   2.834670E+00   4.571306E+00   1.561387E+00   4.881212E-01   1.093060E+00   4.495232E+00   3.723472E+00   6.881775E-01
   5.190946E-01   4.717644E-01   1.081162E+00   1.224616E+00   8.106580E-01   7.451699E-01   1.163564E+00   3.558459E+00   2.839203E+00   2.090402E+00   1.842835E-01   2.708202E-01   3.918311E-01   2.269692E-01   5.222931E-01   4.290241E+00   1.706787E+00   1.359582E+00   7.957480E-01   2.619884E+00   3.507871E+00   1.852165E+01   1.098012E+02   9.883356E+01   1.007966E+02   4.241779E+01   3.183059E+01   8.435010E+00   1.519718E+01   8.937721E+00   6.940488E+00   2.047724E+01   2.488393E+01   9.828269E-01   1.971752E+00   9.003293E-01   2.703660E+00   2.165290E+01   4.110964E+01   5.251254E+01   1.397172E+01   1.463868E+00   1.481294E+00   1.451792E+00   6.027963E-01   1.504822E+00   1.071146E+00   1.898089E+00   6.557463E-01   5.434360E-01
   1.738883E-01   1.470957E-01   1.862321E-01   1.035823E-01   1.621463E-01   4.737614E-01   1.424600E+00   1.093127E+00   7.162864E+00   7.754466E-01   8.517896E-01   4.749566E-01   4.930132E-01   4.153033E-01   1.399820E+00   2.456735E+00   2.448341E+00   3.193578E+00   3.684188E-01   1.423016E+00   1.333412E+01   1.030363E+01   1.770424E+01   6.010705E+01   1.071118E+02   2.102411E+02   1.870309E+01   1.031250E+01   7.839254E+00   2.789331E+00   6.902573E+00   1.190853E+01   4.515746E+00   7.739360E-01   6.183666E-01   4.361962E+00   1.214313E+01   3.932416E+01   3.854317E+01   8.537943E+01   2.145109E+01   1.195083E+00   3.541538E+00   5.503511E+00   1.988017E+00   1.164831E+00   9.232775E-01   7.170753E-02   1.376395E-01   7.783458E-02
   6.279268E-02   7.334629E-02   6.828035E-02   2.264400E-02   8.590622E-02   1.493208E-01   1.463772E-01   2.894737E-01   5.870372E-01   4.996673E-01   8.447777E-01   2.428821E-01   5.416415E-01   5.514989E-01   2.561329E+00   4.393527E+00   3.236969E+00   1.913271E+00   1.857934E+00   6.334809E+00   1.472917E+01   1.110869E+01   3.239964E+01   5.115453E+01   1.045774E+02   1.364102E+01   8.894948E+00   7.054906E+00   1.570879E+00   4.827572E+00   3.774330E+00   2.251664E+00   2.639869E+00   9.654927E-01   1.779981E+00   1.139479E+01   9.575859E+00   4.401284E+01   1.335464E+01   3.298100E+01   7.625137E+00   1.250209E+00   1.601607E+00   4.647618E+00   1.259517E+00   1.512787E+00   1.282305E-01   9.631897E-02   8.723016E-02   5.409961E-02
   9.371360E-02   2.549365E-01   1.303550E-01   4.842406E-02   2.350344E-02   6.945512E-02   2.886896E-02   3.492670E-01   2.875601E-01   6.715688E-01   1.408999E+00   7.051012E-01   2.361612E+00   7.011027E-01   1.554119E+00   2.725430E+00   5.698411E+00   3.722508E+00   4.022913E+00   2.238757E+01   7.278570E+01   1.591808E+01   1.298362E+01   1.502897E+01   6.662540E+00   8.671701E+00   5.550629E+00   7.167711E+00   2.333350E+00   5.734665E+00   4.031296E+00   1.177073E+00   1.100706E+00   8.647642E-01   1.543852E+00   1.931657E+01   1.286679E+01   8.439088E+00   5.903175E+00   6.092898E+00   9.801156E-01   1.112164E+00   2.900728E+00   3.148598E+00   7.591246E-01   1.994293E+00   4.320342E-01   3.043657E-01   6.521375E-02   3.873105E-02
   2.061378E-01   1.248181E-01   1.654727E-01   4.537940E-02   1.495687E-02   3.381670E-03   3.237994E-02   1.248236E-01   4.260849E-01   1.123532E+00   9.704288E-01   1.137842E+00   2.783361E+00   5.293352E+00   7.970781E-01   8.228068E+00   3.813243E+00   9.488894E+00   5.652807E+00   3.181141E+01   1.423755E+02   8.250371E+00   1.149829E+01   9.721926E+00   3.905676E+00   3.395785E+00   5.191906E+00   1.947711E+00   1.793358E+00   1.747072E+00   1.123181E+00   3.803620E-01   5.512735E-01   5.809050E-01   7.492562E+00   1.010072E+01   7.515373E+00   2.072605E+01   3.324762E+00   4.432012E+00   3.763885E+00   1.310707E+00   7.102435E-01   4.669734E-01   6.753020E-01   1.133354E-01   6.807834E-02   4.975327E-01   1.912595E-01   4.166170E-01
   5.078318E-01   2.690563E-01   2.647257E-01   2.742522E-02   1.000054E-02   3.707888E-03   2.979622E-02   3.082185E-01   4.711988E-01   3.168164E-01   1.172424E+00   1.262765E+00   1.035282E+00   7.038010E-01   1.187214E+00   5.737081E+00   9.208237E+00   2.136963E+00   2.558651E+00   3.898561E+01   7.908941E+01   3.003321E+01   5.254514E+01   5.423382E+00   5.968073E+00   3.700564E+00   5.304368E+00   1.782551E+00   2.368457E+00   1.129158E+00   3.567865E-01   8.604100E-01   5.610067E-01   9.073771E-01   1.757536E+00   3.688986E+00   1.267323E+01   5.979888E+00   1.113171E+00   1.855907E+00   7.491601E-01   1.341214E+00   1.423306E+00   6.697800E-01   6.083046E-01   2.726490E-01   4.339783E-01   6.057844E-01   3.505082E-01   1.555673E+00
   1.489744E-01   9.284258E-01   1.509536E-01   3.233501E-02   8.730592E-03   4.389544E-03   5.723806E-03   8.915749E-02   1.497649E-01   3.353246E-01   2.743853E+00   4.645008E-01   1.577856E+00   2.030858E+00   3.174169E+00   5.460467E+00   1.722136E+00   2.938946E+00   2.843067E+01   2.795909E+01   1.148991E+02   1.230109E+02   3.670965E+01   1.155967E+01   2.199463E+01   6.100246E+00   1.473721E+01   3.164376E+01   9.686983E+00   1.199886E+00   2.937998E+00   7.468703E-01   2.329497E-01   3.432524E+00   5.434219E+00   3.307309E+00   2.186286E+00   1.242552E+00   4.084025E-01   1.446856E-01   1.905915E+00   1.359729E+00   1.023537E+00   7.355720E-01   2.216100E-01   2.693645E-01   1.356857E-01   4.872422E-01   1.164842E+00   1.708907E+00
   6.873313E-02   2.018695E-02   3.874076E-02   3.081541E-02   1.129861E-02   2.101039E-03   2.013799E-03   8.450970E-03   6.308699E-02   2.797141E-01   5.561194E-01   1.876107E+00   5.292955E+00   2.026120E+00   2.518764E+01   1.421962E+01   1.923748E+01   3.973958E+00   5.125483E+01   2.879579E+02   2.991654E+02   1.830323E+02   5.937216E+01   7.609975E+00   1.358550E+01   2.143811E+01   9.788425E+01   1.984752E+01   2.489726E+01   2.124896E+00   7.899174E+00   2.437175E+00   1.126764E+00   2.854489E+00   9.020872E-01   1.825355E+00   1.826764E+00   7.756326E-01   1.266544E-01   2.545542E-01   9.692670E-01   1.027993E+00   5.302691E-01   4.725272E-01   9.105859E-02   3.038286E-01   1.572174E-01   4.387225E-01   4.154292E-01   3.772455E+00
   8.501149E-03   1.066267E-02   1.201130E-02   5.459493E-02   5.065917E-03   1.741868E-03   2.939582E-03   1.080362E-02   7.962240E-02   6.558621E-01   1.373819E+00   1.233031E+00   2.971692E+00   4.058431E+00   1.647505E+00   2.760813E+00   5.380378E+00   2.619250E+01   6.576690E+01   4.546432E+01   3.151878E+02   8.756225E+01   4.507339E+01   1.264029E+01   1.026682E+01   4.484316E+01   2.669720E+01   8.727963E+00   1.119782E+01   9.949300E+00   9.172098E+00   5.549195E+00   2.091651E+00   3.408903E+00   2.620979E-01   6.486953E-01   6.425378E-01   2.848615E+00   4.463963E-01   5.936652E-01   7.573367E-01   5.858753E-01   2.487666E-01   1.657927E-01   7.627516E-02   1.275382E-01   6.852365E-02   9.761716E-02   2.615323E-01   1.488769E+00
   1.247988E-02   1.869015E-02   1.637482E-02   4.789402E-02   1.324518E-02   2.551456E-03   5.352197E-03   4.248990E-03   9.342201E-02   9.579154E-01   1.162442E+00   2.390187E+00   6.571072E+00   4.574857E+00   7.116888E+00   1.489909E+00   9.843256E+00   1.628806E+01   3.052185E+01   1.094527E+02   4.819326E+02   1.881219E+02   3.875879E+01   2.216647E+01   4.479964E+01   4.084869E+01   9.904090E+00   1.425426E+01   1.233167E+01   4.924496E+01   2.512044E+00   1.180123E+00   3.993533E-01   3.939697E-01   3.421219E-01   9.028386E-01   8.368225E-01   1.502482E+00   4.444599E+00   1.554495E+00   1.304841E-01   6.578437E-02   2.142968E-01   2.919875E-01   7.640060E-02   9.476798E-02   7.767933E-02   4.869452E-02   2.945402E-01   1.407680E+00
   4.395787E-02   1.178100E-01   2.828163E-02   3.016491E-02   1.461023E-02   2.050702E-02   3.412756E-02   7.522436E-03   5.034744E-02   2.884959E-01   4.495673E-01   2.818615E+00   7.132936E+00   4.775690E+00   1.528153E+00   1.433892E+00   4.727446E+00   1.667829E+01   1.833340E+01   1.871881E+02   1.844406E+02   2.856024E+02   1.262422E+02   8.305032E+01   3.279661E+02   1.170369E+02   2.334432E+01   1.300515E+02   2.494936E+01   1.315054E+01   4.244367E+00   7.428263E-01   1.436599E+00   2.669615E+00   3.656935E-01   1.109494E+00   3.578371E-01   1.799344E-01   1.310595E+00   1.099218E+00   2.850410E-01   6.786340E-01   1.345225E-01   2.094590E-01   2.185798E-02   5.289064E-02   4.991522E-02   1.731449E-01   4.729318E-01   4.001271E-01
   1.517399E-01   1.041777E-01   2.056878E-02   3.643887E-02   5.209646E-03   3.987927E-03   2.925828E-03   4.285456E-02   3.128327E-01   3.885375E-01   1.100211E+00   8.469738E-01   6.194889E+00   2.028763E+00   1.295354E+00   1.069129E+00   5.575988E+00   1.876623E+01   3.988055E+01   6.831102E+02   7.639780E+02   7.426044E+02   1.783635E+02   1.808030E+02   8.681770E+01   1.609038E+02   1.207315E+02   4.905945E+02   2.631418E+02   1.884777E+02   7.958185E+00   6.115879E+00   4.588668E+00   3.964494E+00   3.661716E-01   6.957866E-01   5.908551E-01   1.384082E+00   4.403655E-01   2.592809E-01   7.032976E-01   3.354571E-01   3.053011E-02   3.112386E-02   8.308094E-03   1.283783E-02   8.875450E-02   8.779278E-02   2.090054E-01   1.296917E-01
   1.834243E-02   1.773340E-02   1.417576E-02   5.016741E-03   2.621528E-03   3.366557E-03   7.477190E-03   7.267723E-02   3.465360E-01   5.038835E-02   9.325612E-02   1.676164E+00   3.310352E+00   2.154714E+00   2.009611E+00   4.541672E+00   8.224468E+00   9.200085E+01   1.009039E+02   1.015418E+03   2.742859E+02   5.097992E+02   4.199848E+02   3.414915E+02   6.077479E+01   5.849381E+01   2.073247E+02   3.226432E+02   3.271167E+02   3.858291E+02   2.956837E+02   2.859610E+01   2.664755E+01   4.088541E+00   2.076754E+00   2.772523E+00   1.624264E+00   4.919401E+00   4.284405E+00   4.642998E-01   1.147108E+00   4.067349E-01   7.374066E-02   6.002754E-02   5.000526E-02   5.540292E-02   2.756263E-02   1.592740E-01   2.456934E-01   1.315205E-01
   1.618611E-02   5.328069E-03   9.486715E-03   6.338762E-03   1.282558E-02   6.854216E-03   5.686218E-03   9.969149E-02   3.648980E-01   3.576488E-02   6.626543E-02   3.125036E-01   7.730718E-01   2.698560E+00   2.885400E+00   3.360945E+00   8.235999E+00   1.693106E+01   8.162190E+00   7.259821E+01   1.210904E+02   3.737236E+02   4.523343E+02   4.841508E+02   1.191422E+02   5.017378E+01   1.231443E+02   3.560229E+02   1.402175E+02   4.259298E+02   1.112327E+02   2.691789E+02   4.384734E+01   8.836016E+00   1.474102E+01   5.652754E+00   9.904660E+00   8.508684E+00   8.213791E+00   2.738207E+00   1.596012E+00   8.693106E-01   2.476710E-01   7.128264E-02   6.612894E-02   5.006766E-02   1.651462E-01   3.195948E-01   2.803024E-01   1.099919E-01
   7.591540E-03   1.789784E-02   6.312277E-03   1.863016E-02   2.453439E-02   4.719209E-02   1.971910E-02   2.206375E-02   2.795879E-02   1.966995E-02   2.731576E-02   1.091800E-01   4.077086E-01   8.957067E-01   6.733407E+00   6.607277E-01   7.090269E-01   1.709182E+00   1.361723E+01   1.096051E+02   6.112930E+01   7.687906E+01   1.337630E+02   3.204802E+02   1.166218E+02   9.642701E+01   1.173494E+02   2.632960E+02   3.263959E+02   7.441451E+02   7.915689E+02   8.504436E+01   1.032005E+02   7.481387E+01   4.889386E+00   2.545298E+00   7.872468E+00   3.050357E+00   4.347578E+00   2.556840E+00   1.225451E+00   1.072033E+00   2.416993E-01   1.258511E-01   2.782094E-02   1.088176E-01   1.342273E-01   4.250358E-01   1.499061E-01   5.158499E-02
   2.194435E-02   1.175775E-02   3.327481E-02   5.622127E-02   1.726588E-01   5.481627E-02   3.352186E-02   3.193985E-03   3.057598E-03   1.950408E-03   2.583961E-02   4.211815E-01   3.083023E-01   8.765481E-01   1.690978E+00   9.535710E-01   2.774127E+00   2.129300E+00   7.615197E+00   3.593922E+01   1.744056E+02   1.362305E+02   1.481471E+02   2.691927E+02   1.368050E+02   2.437471E+01   9.639255E+01   3.848557E+02   1.454967E+03   2.978537E+03   1.655289E+03   2.412855E+02   2.984414E+01   2.673804E+01   1.006226E+01   4.691482E+00   3.023176E+00   9.159590E+00   5.266904E+00   3.685934E+00   5.381953E+00   1.519477E+00   2.713045E-01   9.442087E-02   1.572126E-01   7.953284E-01   1.573944E+00   9.834835E-01   4.213591E-01   9.248428E-01
   6.622545E-02   1.100755E-01   1.633681E-01   1.755517E-01   2.730068E-01   7.153882E-02   1.821331E-02   1.152468E-02   5.552080E-03   1.228625E-02   9.342987E-02   1.808768E-01   2.044492E-01   7.249454E-01   2.667249E+00   1.629064E+00   2.606936E+00   3.342887E+00   1.681814E+00   8.742354E+00   5.518684E+01   7.364972E+01   1.209332E+02   2.395004E+02   6.387511E+01   2.795192E+02   5.544874E+02   1.256836E+02   2.215605E+02   4.114417E+02   1.762170E+03   9.027676E+01   1.434880E+01   1.211054E+01   3.193748E+00   5.073319E+00   1.572357E+00   6.708502E+00   4.990918E+00   2.556578E+00   2.142604E+00   2.352025E-01   2.744533E-01   1.049159E-01   1.188107E-01   2.709642E+00   1.755138E+00   1.467885E+00   1.630883E+00   2.951775E-01
   3.887663E-01   2.832174E-01   1.082760E-01   1.630875E-01   2.962326E-01   3.137400E-02   1.332051E-02   8.938369E-03   2.623099E-02   1.845888E-02   1.411501E-01   5.971986E-02   8.830021E-02   7.232153E-02   7.506362E-02   1.410896E+00   1.929372E+00   6.048092E+00   2.452765E+00   6.818269E+00   2.828004E+01   3.106002E+01   1.128505E+02   7.861305E+02   3.695668E+02   8.108666E+02   1.255996E+03   2.938720E+02   2.185610E+02   1.696591E+02   2.845281E+02   6.046395E+01   1.178706E+01   1.441688E+01   5.524229E+00   2.456902E+00   6.964843E+00   8.024302E+00   1.097266E+00   1.577725E-01   2.096134E-01   3.462998E-01   1.872027E-01   1.116931E-01   2.543779E-01   9.265715E-01   1.343933E+00   3.206382E-01   3.751851E-01   1.258061E-01
   1.719238E-01   3.962687E-02   9.204179E-02   9.159062E-02   1.788557E-02   1.875311E-02   1.492528E-02   1.510688E-02   2.959268E-02   1.290543E-02   3.609461E-02   1.932787E-02   4.438077E-02   2.301740E-01   1.551143E-01   1.005290E-01   2.618078E-01   8.466502E-01   3.455201E+00   4.353183E+00   1.638365E+01   4.656758E+01   4.685665E+02   7.127472E+02   3.677248E+02   6.534987E+02   4.844852E+02   1.839732E+02   7.964545E+02   1.723652E+02   1.872785E+02   2.286207E+01   4.265982E+01   1.439994E+01   1.964111E+01   1.166937E+00   1.156224E+00   1.531690E+00   1.732176E-01   1.235475E-01   6.995387E-02   2.378344E-02   1.785437E-01   9.449956E-01   1.216436E+00   7.620154E-01   3.081733E-01   1.889632E-01   1.436091E-01   2.888370E-01
   2.112211E-01   5.791689E-02   1.284326E-01   8.995409E-02   5.367246E-02   5.812432E-02   2.048042E-02   5.871061E-03   1.299356E-02   3.964990E-02   5.936598E-02   2.131599E-02   3.329352E-02   2.956826E-01   7.333885E-01   9.058440E-01   8.319160E-01   1.063357E+00   1.765497E+00   3.181756E+00   1.612341E+02   1.718486E+02   2.373625E+02   1.757292E+02   2.320028E+02   2.588849E+02   3.631484E+03   8.677463E+02   1.744289E+03   2.307266E+02   2.730660E+02   8.248660E+01   7.382181E+01   9.832590E+00   1.538868E+00   7.888066E-01   8.956441E-01   6.846370E-02   9.525292E-02   4.324628E-02   2.063512E-02   7.122872E-02   4.380034E-01   4.540812E+00   7.395646E-01   1.501961E+00   1.864431E-01   3.336993E-01   5.679790E-01   1.234711E-01
   1.527457E-01   5.192724E-02   7.261997E-02   8.513079E-02   4.277993E-02   6.146854E-02   8.598997E-03   3.430806E-03   6.385673E-03   4.133396E-02   6.749410E-02   9.076710E-02   8.321343E-02   7.611526E-01   2.559108E+00   1.729866E+00   2.042620E+00   3.499665E+00   1.394184E+00   8.390447E+00   2.978529E+02   6.387844E+02   1.497685E+02   1.494222E+02   7.662048E+01   1.021540E+02   8.537002E+02   2.945090E+02   6.254470E+02   1.179089E+02   9.109672E+02   5.536108E+01   8.351590E+00   9.418131E+00   1.577468E+00   3.270683E-01   3.013604E-01   2.989555E-01   4.599961E-01   1.411929E-01   4.252678E-01   3.593091E-01   7.212554E-01   9.718552E-01   5.286083E-01   7.039514E-01   7.978207E-01   5.654458E-01   1.914005E+00   3.765953E-01
   2.210129E-01   1.075282E-01   2.744874E-01   2.545353E-01   3.137145E-01   1.033796E-01   5.627929E-02   2.999708E-02   4.965388E-02   5.077541E-02   4.972554E-02   8.659478E-02   6.606345E-02   5.370547E-01   7.062285E+00   3.679461E+00   1.024005E+01   3.201211E+00   2.299172E+00   2.326874E+00   6.288959E+01   1.882062E+02   8.938948E+01   2.114588E+02   5.929968E+01   5.873736E+01   1.455426E+02   1.775761E+02   1.024523E+02   6.427237E+01   2.385162E+02   2.159068E+02   2.028592E+01   5.066276E+01   1.794102E+00   6.630697E-01   5.592125E-01   1.864686E+00   1.795303E+00   5.557458E-01   1.073758E+00   5.623653E-01   6.839590E-01   2.597255E-01   7.257079E-01   3.330988E+00   8.510863E+00   1.034347E+00   7.143116E-01   2.170660E-01