# UPW package for  MODFLOW-NWT, generated by Flopy.
        55    -1E+30         0         0 
         1
         0
   1.000000E+00
         0
         0
INTERNAL               1  (50E15.6) -1 #hk layer 1                    
   1.444822E+00   1.831075E+00   1.180624E+00   2.017395E-01   1.108380E-01   6.257746E-01   1.245556E-01   6.039659E-01   1.937917E+00   4.681210E-01   2.150811E-01   1.671105E-01   1.196071E-01   6.274103E-02   2.519368E-01   2.913042E-01   5.579093E-01   2.854348E-01   2.216826E-01   1.046488E-01   6.395768E-02   2.502106E-02   1.865370E-02   1.472880E-02   2.500923E-02   4.336290E-02   1.023507E-01   3.412376E-02   5.138326E-02   1.043361E-01   3.147295E-02   1.872869E-01   4.233720E-01   2.625331E-01   1.633819E-01   1.542048E+00   3.948599E+00   3.229725E+00   2.877671E+00   9.288119E+00   8.346733E+00   6.758732E+00   5.222216E+01   1.042578E+02   6.044345E+01   2.323038E+02   1.029144E+01   2.407387E+01   1.128173E+01   7.171810E+00
   5.475075E+00   3.661998E+00   2.039098E-01   3.515386E-01   1.992968E-01   1.204818E-01   5.840584E-01   1.304028E+00   4.031956E+00   8.341537E-01   9.307901E-01   2.863737E-01   4.517713E-01   3.246791E-02   3.075830E-02   4.831727E-02   3.033357E-01   3.247112E-01   1.505332E-01   1.786925E-01   1.429497E-01   5.038409E-02   5.819757E-02   3.597189E-02   1.698424E-02   1.809040E-02   2.098524E-01   1.176721E-01   1.450688E-01   1.059435E-01   4.794580E-02   3.219332E-02   5.848106E-02   1.251171E-01   5.336873E-02   2.823288E-01   7.895497E-01   1.678338E+00   4.733796E+00   2.601923E+00   1.295434E+00   1.305709E+01   1.065817E+01   1.865100E+01   1.033997E+02   6.494141E+01   1.279052E+02   1.766934E+01   8.371465E+01   3.961138E+01
   1.881552E+00   7.206945E-01   3.558474E-01   1.863393E-01   2.976585E-01   1.965700E-01   2.421382E-01   1.751268E+00   2.262683E+00   1.896481E+00   2.392686E+00   1.501825E+00   5.764565E-01   1.042972E-01   7.966968E-01   2.008301E-01   5.357682E-01   3.476726E-01   8.846772E-02   1.148972E-01   3.275677E-01   8.861915E-02   2.147275E-01   8.091467E-02   3.584607E-02   2.333453E-01   8.418966E-02   2.559992E-01   8.661127E-02   1.627836E-01   6.005778E-02   6.951699E-02   5.590370E-02   2.428388E-01   4.884501E-02   9.283559E-02   1.586706E-01   4.639681E-01   1.262425E+00   3.748404E+00   5.211070E+00   6.664305E-01   3.435455E+00   8.496124E+00   1.414037E+02   1.550507E+02   2.986615E+01   8.065016E+01   1.059793E+02   5.478101E+01
   5.884892E+00   9.401402E-01   5.134661E-01   8.639235E-02   7.418683E-01   9.314948E-01   1.652973E+00   2.816334E+01   3.668637E+00   1.842774E+00   1.240082E+00   1.443394E+00   1.802135E-01   5.096529E-01   1.222693E+00   6.770406E-01   3.042111E-01   4.381242E-01   2.046121E-01   2.270298E-01   2.776945E-01   9.911809E-02   9.465204E-02   1.587823E-01   7.313839E-02   1.718480E-01   7.061215E-02   4.145011E-02   1.246557E-01   2.294428E-01   3.262251E-01   3.436932E-01   3.015334E-01   2.815610E-01   6.360414E-02   1.682633E-01   7.338616E-02   1.615719E-01   5.339261E-01   8.580604E-01   2.007187E+00   8.243626E-01   1.329499E+00   1.120310E+01   6.208666E+01   2.830605E+01   1.064203E+01   2.861394E+01   3.477612E+01   4.119445E+00
   7.616417E-01   1.494685E-01   3.482559E-01   5.099272E-01   6.294252E-01   1.592110E+00   2.284715E+00   2.250008E+01   1.518981E+01   6.504054E+00   3.062698E+00   1.109169E+00   5.319894E-01   9.283911E-01   2.607168E+00   3.699520E-01   6.805563E-01   8.182255E-01   5.329984E-01   1.152051E-01   7.200007E-01   3.474231E-01   1.359394E+00   6.170576E-01   5.452235E-02   4.141262E-01   1.472109E-01   1.521625E-01   6.844528E-01   2.292838E-01   4.108363E-01   2.772746E+00   2.339121E-01   1.674101E-01   8.868408E-02   2.184376E-01   3.406460E-01   8.032436E-01   2.680845E-01   2.859397E-01   1.260620E+00   2.849733E+00   5.062116E-01   2.606898E+00   3.947273E+00   2.958193E+01   1.353871E+01   1.360412E+01   1.964013E+01   1.224894E+00
   2.609286E+00   4.301144E-01   7.961787E-01   8.239745E-01   1.087806E+00   9.495367E-01   1.436505E+00   3.304834E+00   1.946451E+01   2.646845E+00   3.683920E+00   2.519218E+00   2.531089E+00   1.146949E+00   3.497844E-01   7.411783E-01   1.833722E+00   8.666064E-01   1.931795E-01   2.239749E-01   9.015732E-01   1.273277E+00   1.834395E+00   2.595992E-01   1.900631E-01   6.107706E-01   1.213437E+00   7.259036E-01   5.134845E-01   3.373445E-01   7.511460E-01   1.136516E+00   9.782545E-01   1.682514E-01   6.642979E-02   1.210222E-01   8.462969E-01   4.406024E-01   2.736217E+00   2.858029E+00   3.356036E+00   3.186415E+00   1.319910E+00   5.191329E-01   2.376339E+00   3.042178E+00   2.334069E+00   2.284751E+00   7.574772E+00   2.266987E+00
   9.706072E-01   1.225754E-01   9.546878E-01   9.612669E-01   2.326001E+00   6.432402E-01   4.007844E-01   7.831776E-01   1.300328E+00   1.578670E+01   9.717314E-01   5.852172E-01   1.673755E+00   4.390010E+00   2.154113E+00   4.390977E-01   2.597500E+00   8.459408E-01   3.439593E-01   1.063705E+00   3.760767E+00   3.551393E+00   9.682927E-01   2.823628E+00   8.582761E-01   3.572618E+00   1.202756E+00   4.305579E-01   3.877128E+00   1.961254E+00   1.399769E+00   1.376967E+00   8.209919E-01   2.114972E-01   1.777924E-01   2.078445E-01   9.453360E-01   2.003033E+00   1.190879E+00   2.554229E+00   3.761193E+00   3.171695E+00   2.128480E+00   8.139696E-01   5.835834E-01   2.789507E+00   7.398844E-01   1.106943E+00   6.063538E+00   6.551892E+00
   1.003414E+01   2.761603E+00   1.537184E+00   2.199010E-01   1.507092E-01   5.878426E-01   8.840970E-01   2.151621E+00   5.585684E+00   1.305593E+00   1.572308E+00   4.144675E-01   3.282589E-01   1.586654E+00   2.514395E+00   3.919014E+00   1.461768E+00   7.428007E-01   3.271461E+00   4.771125E+00   1.817815E+01   7.467413E+00   7.242854E-01   3.496929E+00   7.720052E+00   1.170116E+01   3.656629E+00   1.553641E+00   2.424620E+00   6.258761E+00   7.437467E-01   7.856153E-01   1.577577E+00   5.125587E-01   5.156660E-01   2.476383E-01   7.277841E-01   8.090993E-01   2.197587E+00   5.691637E+00   2.327101E+00   3.345238E+00   3.374222E+00   2.513174E+00   8.098804E-01   2.129019E+00   1.158670E+01   9.902725E+00   2.656462E+01   6.241927E+00
   2.129509E+01   2.319853E+00   4.001957E+00   3.694198E-01   2.075092E-01   2.507372E-01   2.227944E-01   1.199552E+00   1.075587E+00   7.639230E-01   5.759009E-01   3.827684E-01   2.707416E-01   3.098205E+00   1.504827E+00   4.449173E+00   5.069646E+00   2.391549E+00   2.458161E+00   1.293175E+00   4.251725E+00   3.172367E+00   3.359717E+00   1.469366E+01   5.282754E+00   6.788470E+00   2.879378E+01   1.560286E+00   3.071514E+00   3.296171E+00   4.328837E-01   3.195020E+00   1.848702E+00   5.119829E-01   4.528426E-01   1.058353E+00   5.882982E-01   7.990609E-01   4.216010E+00   1.437824E+01   5.934968E+00   5.978872E+00   2.848138E+00   1.370526E+00   1.531092E+00   3.661803E+00   6.403932E+00   4.012006E+00   2.524571E+00   1.844957E+00
   1.468244E+01   5.598601E+00   1.043014E+01   1.749795E+00   2.036960E+00   2.261827E-01   1.172353E-01   4.276024E-01   2.206893E-01   4.947021E-01   2.712213E-01   2.088902E+00   2.278649E+00   6.789217E+00   7.469405E+00   2.570075E+00   1.523655E+00   2.207776E+01   1.055657E+01   6.287836E+00   2.431371E+00   5.721737E-01   4.897523E+00   6.426191E+00   2.982959E+00   2.757385E+00   1.443707E+00   7.292172E-01   5.541829E+00   3.352106E+00   2.045823E+00   6.050974E+00   8.981900E+00   2.299316E+00   2.812450E+00   2.837141E+00   5.929136E+00   6.267582E+00   4.733069E+00   8.468195E+00   4.531553E+00   6.112953E+00   5.704952E-01   7.133608E-01   4.729021E-01   3.870058E-01   1.586132E+00   1.366786E+00   6.085246E-01   1.325518E+00
   1.592267E+01   2.647237E+01   1.281421E+01   1.926978E+00   7.978185E-01   5.190812E-01   4.124365E-01   1.323800E-01   2.778658E-01   1.861353E-01   8.681405E-01   8.590544E-01   4.650371E-01   2.728985E+00   1.391891E+01   7.099780E+00   4.621238E+00   5.256926E+00   7.923296E+00   4.597052E+01   3.051818E+00   3.032567E+00   9.259371E+00   6.116238E+00   7.382834E+00   3.462258E+00   1.345733E+00   6.890602E+00   1.151116E+01   2.041804E+00   1.301974E+00   1.770884E+00   1.712816E+00   2.318414E+00   3.588178E+00   2.297502E+00   4.775146E+00   7.668180E+00   4.586835E+00   1.353109E+01   2.765037E+01   2.261209E+00   2.767684E-01   3.951553E-01   1.164271E+00   9.967568E-02   7.608952E-02   1.536141E-01   4.747944E-01   4.017434E-01
   1.073411E+01   1.098423E+01   1.826380E+00   7.609331E-01   3.932827E-01   8.680449E-01   3.721640E-01   8.790638E-02   2.031559E-01   4.526053E-01   1.637449E-01   1.722468E-01   2.739168E-01   1.259467E+00   3.325354E+00   1.205170E+01   1.532759E+00   4.710947E+00   3.432149E+00   7.778282E+00   3.409061E+00   8.972612E+00   5.130048E+00   7.691213E+00   2.632380E+00   1.329613E+00   1.023894E+00   2.151999E+01   5.023752E+01   1.513654E+01   2.037573E+00   7.812482E-01   5.996078E-01   1.198249E+00   8.449913E-01   1.036564E+00   1.646394E+01   1.092588E+01   3.474634E+00   1.002200E+01   1.867805E+00   1.334765E+00   9.532342E-01   7.598523E-01   5.753750E-01   4.564202E-01   1.990127E-01   3.554182E-01   4.358111E-01   1.906316E-01
   2.119070E+01   1.221006E+01   1.086262E+01   1.430383E+00   7.689921E-01   2.313725E+00   3.226389E-01   1.525399E-01   9.876646E-02   4.369636E-01   9.287276E-01   6.595395E-01   5.301424E-01   1.353663E+00   1.293122E+00   4.154719E+00   7.023909E+00   2.108966E+00   2.003581E+00   1.443663E+00   1.881563E+01   5.289684E+01   4.100894E+01   6.653800E+00   3.199686E+00   1.900944E+01   3.311701E+00   1.838695E+01   1.743958E+01   3.163049E+00   4.997629E-01   2.700290E-01   3.511380E-01   1.005366E+00   4.444423E-01   5.630620E+00   6.628006E+00   3.725697E+00   9.565189E+00   2.204976E+00   2.035215E+00   6.071817E-01   1.569185E+00   6.785458E-01   1.930437E+00   2.377953E+00   4.469647E-01   2.904968E-01   1.007362E+00   1.503700E-01
   2.074555E+01   7.904074E+00   7.810944E-01   4.691644E-01   3.939112E-01   1.113607E+00   5.864556E-01   9.852680E-02   5.928567E-01   5.827823E-01   1.895357E-01   2.729544E-01   3.049552E-01   4.265227E-01   1.109658E+00   6.421227E-01   5.363007E+00   1.350455E+01   3.823939E+00   7.694664E+00   1.506626E+01   7.263415E+01   4.655614E+01   7.225158E+00   1.556562E+01   8.893798E+00   6.911503E+00   3.264886E+01   1.041520E+01   4.445138E+00   6.492854E-01   9.612268E-01   2.076090E+00   1.154648E+00   4.539778E+00   9.466952E+00   2.093309E+00   1.239192E+00   5.020707E-01   8.798469E-01   8.939295E-01   1.860135E+00   9.102694E-01   7.276602E-01   5.670558E+00   1.870670E+00   2.785874E-01   7.328485E-01   1.040745E+00   2.955070E-01
   8.664802E-01   1.909650E+00   9.490984E-01   2.005144E-01   2.073933E-01   1.193819E-01   5.525152E-01   2.314512E-01   1.557407E+00   9.241926E-01   8.987502E-02   3.181005E-01   1.044238E+00   8.404040E-01   6.048411E-01   4.404467E-01   4.765230E-01   4.294879E+00   3.346247E+00   9.354724E+00   2.124771E+01   9.273366E+01   5.418202E+01   4.985640E+01   1.746962E+02   1.680424E+02   1.034207E+01   2.457084E+01   1.162808E+01   1.583376E+01   1.501731E+01   3.217420E+00   1.308558E+01   4.911256E+00   4.603236E+00   3.593013E+00   2.054390E+00   1.225604E+00   4.422200E-01   1.015140E+00   1.340955E+00   1.562635E+00   2.295204E+00   1.090565E+01   2.717596E+00   4.492332E+00   9.115247E-01   4.283257E-01   1.875990E+00   4.713559E-01
   8.274035E-01   1.367817E+00   3.803264E-01   9.103046E-01   1.147814E-01   1.176447E-01   2.892914E-01   2.225976E-01   4.523228E-01   2.078045E-01   6.200245E-02   5.540061E-02   4.707989E-01   6.440043E-01   3.803590E-01   3.665450E-01   4.973564E-01   6.138535E-01   1.575361E+00   1.392121E+01   4.314294E+01   4.234962E+01   2.000551E+02   1.347980E+02   2.216017E+02   3.767598E+01   8.497018E+01   4.352380E+01   2.860647E+01   1.455709E+01   2.202729E+01   1.193965E+01   2.731393E+01   1.206681E+01   3.457541E+00   2.797332E+00   2.499543E+00   1.854448E+00   5.404924E+00   6.841851E-01   8.141434E-01   1.752560E+00   2.449532E+00   1.157075E+01   7.965053E+00   5.768756E+00   1.425221E+00   1.386199E+00   5.749460E-01   2.428550E-01
   2.937911E-01   7.917871E-01   8.250255E-01   8.014712E-01   5.134019E-01   1.019557E-01   1.432125E+00   1.132987E+00   6.589826E-01   2.232352E-01   1.375218E-01   1.625887E-01   2.949572E-01   7.538059E-01   1.807832E-01   2.098002E-01   6.686283E-01   9.430997E-01   1.362126E+00   2.631120E+00   3.219076E+00   2.900492E+01   2.727772E+02   1.374592E+02   3.786952E+02   5.423415E+01   5.349390E+01   1.021660E+02   3.619873E+01   2.168821E+01   2.517816E+01   4.427565E+01   2.394020E+01   9.029897E+00   2.147925E+00   1.433135E+00   5.137973E+00   4.652160E+00   2.128687E+01   2.576333E+01   8.881005E+00   6.454228E+00   3.737296E+00   6.634212E+00   1.823063E+00   4.614393E-01   1.064307E+00   6.007892E+00   3.223676E+00   4.049000E-01
   2.708116E-01   1.682934E-01   4.773815E-01   7.267448E-01   6.656755E-01   5.609949E-01   9.824520E-01   3.989017E+00   2.939065E+00   1.609746E+00   1.136240E-01   1.928820E-01   2.745713E-01   1.403549E-01   4.316365E-01   3.888629E+00   1.952585E+00   1.465932E+00   1.030800E+00   3.729087E+00   4.285742E+00   3.041105E+01   1.431681E+02   1.425083E+02   1.325168E+02   4.260915E+01   2.932721E+01   7.784500E+00   1.456872E+01   7.757637E+00   5.404950E+00   1.340891E+01   2.731781E+01   1.124550E+00   2.403214E+00   8.915803E-01   2.313149E+00   1.739483E+01   4.243307E+01   6.805318E+01   2.132389E+01   1.772338E+00   2.036141E+00   2.366257E+00   6.360934E-01   1.795435E+00   1.619724E+00   2.360054E+00   6.938999E-01   3.196105E-01
   1.511262E-01   7.098213E-02   1.153091E-01   7.837370E-02   1.544495E-01   3.697331E-01   1.609656E+00   1.507523E+00   7.618215E+00   5.390103E-01   6.029328E-01   3.981309E-01   4.204217E-01   3.872406E-01   1.423032E+00   2.456218E+00   1.939278E+00   2.948259E+00   4.166939E-01   2.417689E+00   1.813720E+01   1.547530E+01   3.273321E+01   1.036801E+02   1.252995E+02   1.959304E+02   1.767520E+01   1.240127E+01   7.518913E+00   2.538975E+00   5.945504E+00   1.130303E+01   5.108230E+00   1.143654E+00   5.860483E-01   4.021117E+00   7.577446E+00   2.949435E+01   3.836919E+01   1.063819E+02   2.287997E+01   1.095761E+00   4.522001E+00   6.757253E+00   2.491403E+00   1.374433E+00   1.343196E+00   6.792036E-02   1.215365E-01   6.189203E-02
   6.389844E-02   6.276191E-02   6.550040E-02   1.770155E-02   8.123085E-02   1.648987E-01   1.971422E-01   2.872006E-01   5.565789E-01   4.011467E-01   5.109071E-01   1.421655E-01   4.235605E-01   3.980859E-01   2.144331E+00   3.379898E+00   3.917832E+00   1.634990E+00   2.038969E+00   7.472361E+00   1.666705E+01   1.463335E+01   4.665374E+01   7.681921E+01   1.332057E+02   1.846620E+01   1.005497E+01   7.211186E+00   1.248832E+00   3.682066E+00   2.343049E+00   2.632414E+00   3.511255E+00   1.032403E+00   1.692443E+00   8.952179E+00   6.891068E+00   3.273858E+01   9.939204E+00   2.964316E+01   7.200921E+00   1.216572E+00   1.290382E+00   4.992229E+00   1.472342E+00   1.752033E+00   1.321005E-01   8.518367E-02   7.978763E-02   3.502072E-02
   1.228293E-01   2.338593E-01   1.369708E-01   5.697456E-02   2.228754E-02   8.193165E-02   3.765644E-02   4.864692E-01   3.473781E-01   7.253909E-01   8.528270E-01   3.670216E-01   1.458334E+00   3.894467E-01   1.008508E+00   1.947463E+00   3.941350E+00   2.882195E+00   4.795248E+00   2.475806E+01   5.593079E+01   1.539006E+01   1.521430E+01   1.512683E+01   7.256915E+00   1.139262E+01   6.939608E+00   9.349766E+00   2.360517E+00   2.610445E+00   4.091189E+00   1.861869E+00   1.332203E+00   8.949323E-01   1.469813E+00   1.723038E+01   1.134218E+01   6.128278E+00   3.948622E+00   5.142544E+00   6.874704E-01   1.049112E+00   2.556466E+00   3.306715E+00   6.858907E-01   2.012383E+00   3.429342E-01   2.607943E-01   4.633710E-02   2.584591E-02
   2.172452E-01   1.364372E-01   2.173588E-01   5.196243E-02   1.098871E-02   3.605173E-03   3.947060E-02   1.631044E-01   3.710992E-01   1.224676E+00   6.532611E-01   8.615577E-01   1.776836E+00   3.574349E+00   5.237168E-01   6.951817E+00   2.417356E+00   7.881378E+00   4.641916E+00   2.348411E+01   1.109400E+02   8.215204E+00   1.229163E+01   1.013688E+01   4.196508E+00   3.992765E+00   5.585349E+00   2.099841E+00   1.836159E+00   1.035314E+00   1.319119E+00   4.356907E-01   8.893672E-01   7.261779E-01   7.232489E+00   9.711823E+00   9.306529E+00   1.493404E+01   2.297477E+00   3.279745E+00   2.787765E+00   1.270687E+00   4.486096E-01   3.958106E-01   5.589018E-01   9.713499E-02   5.099604E-02   4.461290E-01   1.444817E-01   3.144011E-01
   4.129670E-01   3.592321E-01   3.568556E-01   2.926933E-02   1.125556E-02   4.067136E-03   3.039924E-02   3.342579E-01   5.264196E-01   3.201570E-01   8.221362E-01   1.098709E+00   6.276848E-01   4.668348E-01   1.035251E+00   5.809613E+00   8.310972E+00   3.031891E+00   3.003120E+00   3.686152E+01   9.275223E+01   3.426144E+01   5.925893E+01   4.537452E+00   5.684135E+00   2.778941E+00   5.325376E+00   1.701992E+00   1.934822E+00   8.860106E-01   3.787304E-01   1.505065E+00   7.919252E-01   1.228572E+00   1.213834E+00   2.558581E+00   9.464021E+00   4.935027E+00   5.485358E-01   1.228061E+00   4.086957E-01   1.053117E+00   8.834254E-01   6.708862E-01   6.261834E-01   2.951268E-01   3.810912E-01   6.560819E-01   3.139864E-01   1.242522E+00
   1.021070E-01   8.078717E-01   1.698356E-01   4.101409E-02   8.068383E-03   3.946214E-03   5.177349E-03   8.303680E-02   1.442464E-01   2.896488E-01   2.554038E+00   3.684490E-01   1.443442E+00   1.699377E+00   2.998660E+00   8.045155E+00   2.049194E+00   3.585810E+00   2.876046E+01   3.609047E+01   1.392578E+02   1.719718E+02   4.715813E+01   1.404854E+01   2.139849E+01   4.513161E+00   1.308035E+01   2.380605E+01   6.446699E+00   1.091471E+00   2.524712E+00   7.690250E-01   2.447696E-01   3.472584E+00   4.213037E+00   1.795413E+00   1.603605E+00   7.942213E-01   2.555578E-01   7.220889E-02   1.047588E+00   8.646972E-01   5.578600E-01   1.035054E+00   2.695418E-01   2.901554E-01   1.507440E-01   4.901333E-01   9.033424E-01   1.509270E+00
   3.159517E-02   1.012880E-02   2.883816E-02   2.505724E-02   1.546854E-02   2.102836E-03   2.810817E-03   9.353641E-03   5.964274E-02   3.199613E-01   6.817737E-01   1.692244E+00   4.624049E+00   1.948252E+00   2.829114E+01   2.050601E+01   3.186133E+01   7.233040E+00   7.434983E+01   5.128531E+02   4.126842E+02   2.422760E+02   7.250839E+01   8.643519E+00   1.404011E+01   2.260998E+01   1.004456E+02   1.644220E+01   1.917729E+01   1.775011E+00   8.486031E+00   2.278263E+00   9.304426E-01   2.983149E+00   8.472214E-01   8.668566E-01   9.259617E-01   4.576142E-01   6.641371E-02   1.257269E-01   6.363734E-01   1.056616E+00   4.284797E-01   4.926535E-01   7.911009E-02   3.653769E-01   2.228408E-01   3.521622E-01   2.875632E-01   2.991808E+00
   6.994542E-03   5.672517E-03   5.799130E-03   3.905384E-02   5.583738E-03   1.988423E-03   4.882883E-03   1.242408E-02   8.053417E-02   9.845283E-01   1.974947E+00   1.217922E+00   2.550437E+00   3.382563E+00   1.966260E+00   3.158833E+00   1.000267E+01   4.901825E+01   7.694685E+01   8.997210E+01   4.557430E+02   1.161463E+02   4.960631E+01   1.355022E+01   9.363375E+00   4.967066E+01   2.313847E+01   7.965258E+00   9.510677E+00   6.888012E+00   1.024127E+01   6.718868E+00   2.124779E+00   5.194581E+00   2.838338E-01   3.589419E-01   4.416187E-01   1.926402E+00   2.741868E-01   3.920776E-01   4.654405E-01   6.464664E-01   2.593252E-01   1.741706E-01   8.386921E-02   1.714416E-01   6.833328E-02   7.288463E-02   2.254983E-01   7.810148E-01
   9.485153E-03   1.393885E-02   1.019948E-02   3.246624E-02   1.394023E-02   3.715119E-03   7.990842E-03   6.358950E-03   1.016439E-01   1.482480E+00   2.069822E+00   2.924475E+00   6.601375E+00   5.897532E+00   1.032390E+01   1.641141E+00   1.165640E+01   1.938536E+01   3.746041E+01   1.580184E+02   7.730074E+02   2.293138E+02   3.142785E+01   1.666409E+01   4.494089E+01   5.523113E+01   8.962028E+00   1.253991E+01   9.438784E+00   5.134752E+01   2.243351E+00   1.365125E+00   4.367456E-01   5.579486E-01   3.946134E-01   1.084718E+00   9.257056E-01   1.252134E+00   3.297071E+00   1.035043E+00   1.152968E-01   6.543210E-02   2.743410E-01   3.592311E-01   9.645103E-02   1.004975E-01   7.706044E-02   4.610297E-02   2.405026E-01   1.042830E+00
   5.127101E-02   1.148434E-01   2.448924E-02   2.038484E-02   1.579830E-02   3.340691E-02   8.090451E-02   2.045056E-02   6.538636E-02   6.438512E-01   1.061282E+00   3.677625E+00   9.081313E+00   5.666638E+00   1.466538E+00   1.052284E+00   3.378622E+00   1.369681E+01   1.795183E+01   1.982741E+02   2.446771E+02   3.273113E+02   1.570932E+02   8.214714E+01   3.178901E+02   1.107176E+02   2.838158E+01   1.297805E+02   2.122091E+01   1.186139E+01   5.320404E+00   7.882536E-01   1.384408E+00   3.231272E+00   5.055755E-01   1.796783E+00   3.858798E-01   1.535019E-01   9.058438E-01   8.609467E-01   2.606756E-01   5.910424E-01   1.260265E-01   2.646842E-01   2.158636E-02   4.441101E-02   3.618092E-02   1.210629E-01   3.873127E-01   2.749591E-01
   1.476443E-01   8.175553E-02   1.289462E-02   2.669817E-02   5.478932E-03   6.500919E-03   4.988345E-03   7.610955E-02   7.667282E-01   6.804089E-01   2.458794E+00   1.598775E+00   8.079245E+00   2.336033E+00   8.488548E-01   7.451223E-01   4.149321E+00   1.760143E+01   3.221192E+01   7.224151E+02   1.120346E+03   1.259385E+03   2.390248E+02   1.806841E+02   7.926437E+01   1.702229E+02   1.706026E+02   5.907795E+02   2.875000E+02   2.720828E+02   9.042237E+00   7.314472E+00   4.932674E+00   4.300265E+00   4.874295E-01   1.084765E+00   7.631909E-01   1.266042E+00   4.092887E-01   2.147498E-01   7.038652E-01   3.933676E-01   3.086744E-02   3.202664E-02   7.736821E-03   1.207079E-02   5.686946E-02   6.068005E-02   1.428803E-01   1.002535E-01
   1.495638E-02   1.166803E-02   8.961502E-03   3.938809E-03   3.256662E-03   4.491054E-03   1.258469E-02   1.254507E-01   5.528513E-01   8.779298E-02   1.821210E-01   2.767597E+00   4.004494E+00   1.775090E+00   1.415789E+00   2.756101E+00   5.394303E+00   6.782336E+01   8.486799E+01   9.491646E+02   3.967457E+02   7.658995E+02   6.563632E+02   3.461116E+02   5.886866E+01   7.117280E+01   3.558743E+02   6.007955E+02   4.823784E+02   6.386337E+02   3.478347E+02   1.908035E+01   2.755269E+01   3.918307E+00   2.471305E+00   3.557741E+00   1.496180E+00   5.120517E+00   4.833346E+00   5.571234E-01   1.379322E+00   6.056408E-01   1.207387E-01   5.917774E-02   6.097987E-02   6.085094E-02   2.114660E-02   1.151611E-01   2.368020E-01   9.142210E-02
   1.133843E-02   4.512229E-03   7.731023E-03   5.919151E-03   2.005351E-02   1.311565E-02   1.489138E-02   1.705632E-01   5.183038E-01   5.454376E-02   1.150278E-01   3.101652E-01   5.934384E-01   2.570734E+00   2.171713E+00   2.658172E+00   5.158525E+00   9.622252E+00   6.270523E+00   6.641853E+01   1.311703E+02   4.099280E+02   4.429681E+02   4.545951E+02   1.339660E+02   7.287225E+01   1.660116E+02   5.659202E+02   1.877477E+02   6.705483E+02   1.510313E+02   2.425497E+02   2.960960E+01   7.590274E+00   1.630596E+01   6.186300E+00   8.043584E+00   8.012144E+00   8.563917E+00   3.072064E+00   2.488055E+00   1.612304E+00   3.883570E-01   8.971015E-02   7.121964E-02   5.913589E-02   1.913761E-01   2.924221E-01   3.054701E-01   1.154355E-01
   4.756337E-03   1.572020E-02   4.888446E-03   1.732746E-02   3.444137E-02   7.410752E-02   4.409825E-02   4.293517E-02   3.793067E-02   2.475314E-02   2.998006E-02   1.255265E-01   3.010616E-01   7.744135E-01   5.194675E+00   5.115827E-01   4.521566E-01   1.003736E+00   7.648664E+00   9.261056E+01   4.089639E+01   5.112506E+01   1.228236E+02   3.543042E+02   1.312853E+02   1.348213E+02   1.689727E+02   5.672275E+02   5.126963E+02   8.406379E+02   7.176840E+02   7.029710E+01   6.118904E+01   7.175870E+01   4.941708E+00   2.418350E+00   7.523683E+00   3.303991E+00   4.766315E+00   3.216059E+00   1.789218E+00   1.524256E+00   2.740437E-01   1.166969E-01   2.914215E-02   1.495824E-01   1.623309E-01   5.881262E-01   1.928696E-01   3.943798E-02
   1.765571E-02   9.064806E-03   3.971918E-02   5.445482E-02   1.704903E-01   5.609377E-02   6.411996E-02   5.148287E-03   3.873089E-03   1.429136E-03   1.894782E-02   3.618315E-01   2.284804E-01   5.801218E-01   1.421872E+00   9.462489E-01   2.225601E+00   1.237505E+00   5.476376E+00   3.168280E+01   1.362002E+02   1.365581E+02   1.490446E+02   3.559055E+02   1.710455E+02   3.086637E+01   1.179885E+02   6.396031E+02   2.131698E+03   4.769692E+03   1.763006E+03   2.525934E+02   1.861727E+01   2.957104E+01   7.928781E+00   7.102683E+00   2.397804E+00   8.880139E+00   5.170345E+00   4.072099E+00   5.410161E+00   1.137483E+00   2.881282E-01   1.104106E-01   1.455423E-01   9.336447E-01   2.391822E+00   1.710147E+00   6.737871E-01   1.000177E+00
   5.896144E-02   9.933449E-02   1.760383E-01   1.525041E-01   1.789782E-01   5.868696E-02   2.286724E-02   1.479874E-02   5.998695E-03   1.013124E-02   5.835000E-02   7.826460E-02   1.353765E-01   6.535506E-01   2.824674E+00   1.329458E+00   1.681229E+00   2.128678E+00   1.104154E+00   8.324028E+00   4.052837E+01   6.039939E+01   1.188339E+02   2.801012E+02   6.923409E+01   3.633083E+02   7.477476E+02   1.596321E+02   3.084242E+02   4.522166E+02   1.916711E+03   1.132833E+02   1.125074E+01   8.621005E+00   2.695025E+00   5.203257E+00   1.961756E+00   7.296756E+00   4.858270E+00   2.106639E+00   1.466584E+00   1.793428E-01   1.842452E-01   9.423395E-02   7.678886E-02   3.295797E+00   1.757511E+00   1.487969E+00   2.190196E+00   2.813578E-01
   2.529500E-01   2.439608E-01   8.809242E-02   9.031961E-02   1.542886E-01   2.039764E-02   1.046451E-02   7.949042E-03   2.813109E-02   1.339856E-02   1.092810E-01   4.927668E-02   6.546336E-02   5.809582E-02   6.066383E-02   9.918347E-01   1.161304E+00   3.716365E+00   1.699287E+00   3.870705E+00   1.665855E+01   1.615539E+01   7.011552E+01   9.703054E+02   5.862741E+02   1.256223E+03   1.827249E+03   3.325285E+02   3.043580E+02   2.268854E+02   2.801941E+02   4.358334E+01   8.937866E+00   1.114594E+01   4.640583E+00   2.025305E+00   6.134476E+00   1.160339E+01   1.397475E+00   1.470488E-01   1.345956E-01   2.630830E-01   1.748880E-01   8.606188E-02   1.504794E-01   6.670456E-01   7.012177E-01   1.931013E-01   3.178166E-01   7.402036E-02
   8.611225E-02   2.570823E-02   5.737589E-02   5.236292E-02   9.010053E-03   1.310353E-02   7.613458E-03   9.473096E-03   2.149501E-02   9.452390E-03   2.810724E-02   1.826068E-02   5.552966E-02   1.580086E-01   1.021603E-01   6.514490E-02   1.717475E-01   8.178484E-01   3.650454E+00   3.023751E+00   1.053212E+01   2.929412E+01   3.293841E+02   7.534979E+02   5.209827E+02   1.083266E+03   8.016383E+02   2.753835E+02   1.181182E+03   2.126434E+02   1.509663E+02   1.344060E+01   2.438781E+01   1.004952E+01   1.690421E+01   6.587610E-01   1.188955E+00   1.852964E+00   2.151184E-01   1.168688E-01   4.060058E-02   1.374071E-02   1.251554E-01   6.521648E-01   7.358099E-01   4.800657E-01   1.667976E-01   7.848220E-02   6.270400E-02   1.369925E-01
   9.602246E-02   2.989890E-02   6.081752E-02   6.186854E-02   2.479142E-02   2.548921E-02   9.332315E-03   3.097458E-03   1.073651E-02   3.319211E-02   5.486549E-02   1.863679E-02   3.078824E-02   2.593912E-01   5.028827E-01   6.339775E-01   8.992952E-01   1.045040E+00   2.108628E+00   2.734592E+00   1.412607E+02   1.108850E+02   2.182074E+02   1.220586E+02   2.710676E+02   3.488344E+02   4.575320E+03   1.137114E+03   2.546370E+03   2.525897E+02   2.111782E+02   5.991404E+01   4.557475E+01   9.850718E+00   1.215589E+00   6.305735E-01   1.117084E+00   8.714700E-02   1.076789E-01   3.461981E-02   1.723844E-02   4.153221E-02   3.398471E-01   3.853307E+00   4.525121E-01   7.670371E-01   7.776324E-02   1.360163E-01   2.258547E-01   5.212267E-02
   7.563899E-02   3.236829E-02   3.034877E-02   3.941680E-02   2.748893E-02   2.596369E-02   4.186945E-03   1.995006E-03   6.181840E-03   4.150145E-02   5.315160E-02   7.784866E-02   7.487219E-02   7.262411E-01   1.793208E+00   1.099627E+00   1.918662E+00   4.336053E+00   1.232756E+00   7.388335E+00   2.514837E+02   6.790916E+02   1.216012E+02   1.323184E+02   7.720257E+01   1.094262E+02   1.361301E+03   3.831819E+02   7.645188E+02   1.403579E+02   9.824149E+02   4.904429E+01   6.009986E+00   7.183733E+00   1.722626E+00   3.311349E-01   3.146034E-01   3.545903E-01   4.537912E-01   1.259419E-01   3.971224E-01   3.245317E-01   8.748507E-01   9.237928E-01   3.147470E-01   3.413667E-01   3.865681E-01   2.306930E-01   6.389145E-01   1.685384E-01
   1.148132E-01   6.769166E-02   1.440389E-01   1.058775E-01   1.966191E-01   5.345628E-02   2.637687E-02   1.679880E-02   3.712443E-02   4.286123E-02   3.517333E-02   7.554658E-02   4.037913E-02   3.642829E-01   4.929194E+00   3.252425E+00   9.227289E+00   3.124203E+00   2.371316E+00   2.319548E+00   4.865181E+01   1.688955E+02   7.003024E+01   2.242995E+02   5.740352E+01   7.820898E+01   1.362059E+02   2.583496E+02   1.233634E+02   6.439824E+01   1.929048E+02   1.821668E+02   2.058204E+01   5.139216E+01   1.927830E+00   6.408696E-01   4.589810E-01   1.918368E+00   1.805104E+00   5.146941E-01   1.068017E+00   6.008021E-01   7.511828E-01   2.055169E-01   4.609755E-01   2.317943E+00   4.385258E+00   3.718686E-01   2.832620E-01   1.038582E-01