# BAS6 package for  MODFLOW-NWT, generated by Flopy.
FREE
INTERNAL               1     (FREE) -1 #ibound_layer_0                
         1         1         1         1         1         1         1         1         1         1         1         1         1         1         1         1         1         1         1         1         1         1         1         1         1         1         1         1         1         1         1         1         1         1         1         1         1         1         1         1         1         1         1         1         1         1         1         1         1         1
         1         1         1         1         1         1         1         1         1         1         1         1         1         1         1         1         1         1         1         1         1         1         1         1         1         1         1         1         1         1         1         1         1         1         1         1         1         1         1         1         1         1         1         1         1         1         1         1         1         1
         1         1         1         1         1         1         1         1         1         1         1         1         1         1         1         1         1         1         1         1         1         1         1         1         1         1         1         1         1         1         1         1         1         1         1         1         1         1         1         1         1         1         1         1         1         1         1         1         1         1
         1         1         1         1         1         1         1         1         1         1         1         1         1         1         1         1         1         1         1         1         1         1         1         1         1         1         1         1         1         1         1         1         1         1         1         1         1         1         1         1         1         1         1         1         1         1         1         1         1         1
         1         1         1         1         1         1         1         1         1         1         1         1         1         1         1         1         1         1         1         1         1         1         1         1         1         1         1         1         1         1         1         1         1         1         1         1         1         1         1         1         1         1         1         1         1         1         1         1         1         1
         1         1         1         1         1         1         1         1         1         1         1         1         1         1         1         1         1         1         1         1         1         1         1         1         1         1         1         1         1         1         1         1         1         1         1         1         1         1         1         1         1         1         1         1         1         1         1         1         1         1
         1         1         1         1         1         1         1         1         1         1         1         1         1         1         1         1         1         1         1         1         1         1         1         1         1         1         1         1         1         1         1         1         1         1         1         1         1         1         1         1         1         1         1         1         1         1         1         1         1         1
         1         1         1         1         1         1         1         1         1         1         1         1         1         1         1         1         1         1         1         1         1         1         1         1         1         1         1         1         1         1         1         1         1         1         1         1         1         1         1         1         1         1         1         1         1         1         1         1         1         1
         1         1         1         1         1         1         1         1         1         1         1         1         1         1         1         1         1         1         1         1         1         1         1         1         1         1         1         1         1         1         1         1         1         1         1         1         1         1         1         1         1         1         1         1         1         1         1         1         1         1
         1         1         1         1         1         1         1         1         1         1         1         1         1         1         1         1         1         1         1         1         1         1         1         1         1         1         1         1         1         1         1         1         1         1         1         1         1         1         1         1         1         1         1         1         1         1         1         1         1         1
         1         1         1         1         1         1         1         1         1         1         1         1         1         1         1         1         1         1         1         1         1         1         1         1         1         1         1         1         1         1         1         1         1         1         1         1         1         1         1         1         1         1         1         1         1         1         1         1         1         1
         1         1         1         1         1         1         1         1         1         1         1         1         1         1         1         1         1         1         1         1         1         1         1         1         1         1         1         1         1         1         1         1         1         1         1         1         1         1         1         1         1         1         1         1         1         1         1         1         1         1
         1         1         1         1         1         1         1         1         1         1         1         1         1         1         1         1         1         1         1         1         1         1         1         1         1         1         1         1         1         1         1         1         1         1         1         1         1         1         1         1         1         1         1         1         1         1         1         1         1         1
         1         1         1         1         1         1         1         1         1         1         1         1         1         1         1         1         1         1         1         1         1         1         1         1         1         1         1         1         1         1         1         1         1         1         1         1         1         1         1         1         1         1         1         1         1         1         1         1         1         1
         1         1         1         1         1         1         1         1         1         1         1         1         1         1         1         1         1         1         1         1         1         1         1         1         1         1         1         1         1         1         1         1         1         1         1         1         1         1         1         1         1         1         1         1         1         1         1         1         1         1
         1         1         1         1         1         1         1         1         1         1         1         1         1         1         1         1         1         1         1         1         1         1         1         1         1         1         1         1         1         1         1         1         1         1         1         1         1         1         1         1         1         1         1         1         1         1         1         1         1         1
         1         1         1         1         1         1         1         1         1         1         1         1         1         1         1         1         1         1         1         1         1         1         1         1         1         1         1         1         1         1         1         1         1         1         1         1         1         1         1         1         1         1         1         1         1         1         1         1         1         1
         1         1         1         1         1         1         1         1         1         1         1         1         1         1         1         1         1         1         1         1         1         1         1         1         1         1         1         1         1         1         1         1         1         1         1         1         1         1         1         1         1         1         1         1         1         1         1         1         1         1
         1         1         1         1         1         1         1         1         1         1         1         1         1         1         1         1         1         1         1         1         1         1         1         1         1         1         1         1         1         1         1         1         1         1         1         1         1         1         1         1         1         1         1         1         1         1         1         1         1         1
         1         1         1         1         1         1         1         1         1         1         1         1         1         1         1         1         1         1         1         1         1         1         1         1         1         1         1         1         1         1         1         1         1         1         1         1         1         1         1         1         1         1         1         1         1         1         1         1         1         1
         1         1         1         1         1         1         1         1         1         1         1         1         1         1         1         1         1         1         1         1         1         1         1         1         1         1         1         1         1         1         1         1         1         1         1         1         1         1         1         1         1         1         1         1         1         1         1         1         1         1
         1         1         1         1         1         1         1         1         1         1         1         1         1         1         1         1         1         1         1         1         1         1         1         1         1         1         1         1         1         1         1         1         1         1         1         1         1         1         1         1         1         1         1         1         1         1         1         1         1         1
         1         1         1         1         1         1         1         1         1         1         1         1         1         1         1         1         1         1         1         1         1         1         1         1         1         1         1         1         1         1         1         1         1         1         1         1         1         1         1         1         1         1         1         1         1         1         1         1         1         1
         1         1         1         1         1         1         1         1         1         1         1         1         1         1         1         1         1         1         1         1         1         1         1         1         1         1         1         1         1         1         1         1         1         1         1         1         1         1         1         1         1         1         1         1         1         1         1         1         1         1
         1         1         1         1         1         1         1         1         1         1         1         1         1         1         1         1         1         1         1         1         1         1         1         1         1         1         1         1         1         1         1         1         1         1         1         1         1         1         1         1         1         1         1         1         1         1         1         1         1         1
         1         1         1         1         1         1         1         1         1         1         1         1         1         1         1         1         1         1         1         1         1         1         1         1         1         1         1         1         1         1         1         1         1         1         1         1         1         1         1         1         1         1         1         1         1         1         1         1         1         1
         1         1         1         1         1         1         1         1         1         1         1         1         1         1         1         1         1         1         1         1         1         1         1         1         1         1         1         1         1         1         1         1         1         1         1         1         1         1         1         1         1         1         1         1         1         1         1         1         1         1
         1         1         1         1         1         1         1         1         1         1         1         1         1         1         1         1         1         1         1         1         1         1         1         1         1         1         1         1         1         1         1         1         1         1         1         1         1         1         1         1         1         1         1         1         1         1         1         1         1         1
         1         1         1         1         1         1         1         1         1         1         1         1         1         1         1         1         1         1         1         1         1         1         1         1         1         1         1         1         1         1         1         1         1         1         1         1         1         1         1         1         1         1         1         1         1         1         1         1         1         1
         1         1         1         1         1         1         1         1         1         1         1         1         1         1         1         1         1         1         1         1         1         1         1         1         1         1         1         1         1         1         1         1         1         1         1         1         1         1         1         1         1         1         1         1         1         1         1         1         1         1
         1         1         1         1         1         1         1         1         1         1         1         1         1         1         1         1         1         1         1         1         1         1         1         1         1         1         1         1         1         1         1         1         1         1         1         1         1         1         1         1         1         1         1         1         1         1         1         1         1         1
         1         1         1         1         1         1         1         1         1         1         1         1         1         1         1         1         1         1         1         1         1         1         1         1         1         1         1         1         1         1         1         1         1         1         1         1         1         1         1         1         1         1         1         1         1         1         1         1         1         1
         1         1         1         1         1         1         1         1         1         1         1         1         1         1         1         1         1         1         1         1         1         1         1         1         1         1         1         1         1         1         1         1         1         1         1         1         1         1         1         1         1         1         1         1         1         1         1         1         1         1
         1         1         1         1         1         1         1         1         1         1         1         1         1         1         1         1         1         1         1         1         1         1         1         1         1         1         1         1         1         1         1         1         1         1         1         1         1         1         1         1         1         1         1         1         1         1         1         1         1         1
         1         1         1         1         1         1         1         1         1         1         1         1         1         1         1         1         1         1         1         1         1         1         1         1         1         1         1         1         1         1         1         1         1         1         1         1         1         1         1         1         1         1         1         1         1         1         1         1         1         1
         1         1         1         1         1         1         1         1         1         1         1         1         1         1         1         1         1         1         1         1         1         1         1         1         1         1         1         1         1         1         1         1         1         1         1         1         1         1         1         1         1         1         1         1         1         1         1         1         1         1
         1         1         1         1         1         1         1         1         1         1         1         1         1         1         1         1         1         1         1         1         1         1         1         1         1         1         1         1         1         1         1         1         1         1         1         1         1         1         1         1         1         1         1         1         1         1         1         1         1         1
         1         1         1         1         1         1         1         1         1         1         1         1         1         1         1         1         1         1         1         1         1         1         1         1         1         1         1         1         1         1         1         1         1         1         1         1         1         1         1         1         1         1         1         1         1         1         1         1         1         1
         1         1         1         1         1         1         1         1         1         1         1         1         1         1         1         1         1         1         1         1         1         1         1         1         1         1         1         1         1         1         1         1         1         1         1         1         1         1         1         1         1         1         1         1         1         1         1         1         1         1
         1         1         1         1         1         1         1         1         1         1         1         1         1         1         1         1         1         1         1         1         1         1         1         1         1         1         1         1         1         1         1         1         1         1         1         1         1         1         1         1         1         1         1         1         1         1         1         1         1         1
         1         1         1         1         1         1         1         1         1         1         1         1         1         1         1         1         1         1         1         1         1         1         1         1         1         1         1         1         1         1         1         1         1         1         1         1         1         1         1         1         1         1         1         1         1         1         1         1         1         1
         1         1         1         1         1         1         1         1         1         1         1         1         1         1         1         1         1         1         1         1         1         1         1         1         1         1         1         1         1         1         1         1         1         1         1         1         1         1         1         1         1         1         1         1         1         1         1         1         1         1
         1         1         1         1         1         1         1         1         1         1         1         1         1         1         1         1         1         1         1         1         1         1         1         1         1         1         1         1         1         1         1         1         1         1         1         1         1         1         1         1         1         1         1         1         1         1         1         1         1         1
         1         1         1         1         1         1         1         1         1         1         1         1         1         1         1         1         1         1         1         1         1         1         1         1         1         1         1         1         1         1         1         1         1         1         1         1         1         1         1         1         1         1         1         1         1         1         1         1         1         1
         1         1         1         1         1         1         1         1         1         1         1         1         1         1         1         1         1         1         1         1         1         1         1         1         1         1         1         1         1         1         1         1         1         1         1         1         1         1         1         1         1         1         1         1         1         1         1         1         1         1
         1         1         1         1         1         1         1         1         1         1         1         1         1         1         1         1         1         1         1         1         1         1         1         1         1         1         1         1         1         1         1         1         1         1         1         1         1         1         1         1         1         1         1         1         1         1         1         1         1         1
         1         1         1         1         1         1         1         1         1         1         1         1         1         1         1         1         1         1         1         1         1         1         1         1         1         1         1         1         1         1         1         1         1         1         1         1         1         1         1         1         1         1         1         1         1         1         1         1         1         1
         1         1         1         1         1         1         1         1         1         1         1         1         1         1         1         1         1         1         1         1         1         1         1         1         1         1         1         1         1         1         1         1         1         1         1         1         1         1         1         1         1         1         1         1         1         1         1         1         1         1
         1         1         1         1         1         1         1         1         1         1         1         1         1         1         1         1         1         1         1         1         1         1         1         1         1         1         1         1         1         1         1         1         1         1         1         1         1         1         1         1         1         1         1         1         1         1         1         1         1         1
         1         1         1         1         1         1         1         1         1         1         1         1         1         1         1         1         1         1         1         1         1         1         1         1         1         1         1         1         1         1         1         1         1         1         1         1         1         1         1         1         1         1         1         1         1         1         1         1         1         1
   -999.99
INTERNAL               1  (50E15.6) -1 #strt layer 1                  
   8.999998E+01   8.999998E+01   8.999998E+01   8.999997E+01   8.999997E+01   8.999996E+01   8.999896E+01   8.999896E+01   8.999905E+01   8.999905E+01   8.999904E+01   8.999904E+01   8.999903E+01   8.999902E+01   8.999902E+01   8.999900E+01   8.999899E+01   8.999894E+01   8.999899E+01   8.999898E+01   8.999897E+01   8.999896E+01   8.999895E+01   8.999895E+01   8.999994E+01   8.999894E+01   8.999894E+01   8.999897E+01   8.999898E+01   8.999899E+01   8.999899E+01   8.999901E+01   8.999901E+01   8.999902E+01   8.999904E+01   8.999905E+01   8.999906E+01   8.999907E+01   8.999908E+01   8.999905E+01   8.999906E+01   8.999907E+01   8.999910E+01   8.999911E+01   8.999911E+01   8.999908E+01   8.999909E+01   8.999909E+01   8.999909E+01   8.999899E+01
   8.999998E+01   8.999998E+01   8.999998E+01   8.999997E+01   8.999997E+01   8.999897E+01   8.999897E+01   8.999896E+01   8.999905E+01   8.999905E+01   8.999904E+01   8.999903E+01   8.999902E+01   8.999897E+01   8.999896E+01   8.999895E+01   8.999894E+01   8.999894E+01   8.999898E+01   8.999897E+01   8.999896E+01   8.999895E+01   8.999895E+01   8.999895E+01   8.999894E+01   8.999893E+01   8.999895E+01   8.999896E+01   8.999897E+01   8.999898E+01   8.999899E+01   8.999900E+01   8.999901E+01   8.999902E+01   8.999903E+01   8.999905E+01   8.999905E+01   8.999906E+01   8.999908E+01   8.999906E+01   8.999951E+01   8.999954E+01   8.999955E+01   8.999956E+01   8.999911E+01   8.999911E+01   8.999909E+01   8.999909E+01   8.999909E+01   8.999899E+01
   8.999998E+01   8.999998E+01   8.999998E+01   8.999997E+01   8.999897E+01   8.999896E+01   8.999897E+01   8.999896E+01   8.999905E+01   8.999904E+01   8.999903E+01   8.999902E+01   8.999897E+01   8.999896E+01   8.999796E+01   8.999895E+01   8.999894E+01   8.999892E+01   8.999892E+01   8.999895E+01   8.999795E+01   8.999795E+01   8.999794E+01   8.999892E+01   8.999892E+01   8.999792E+01   8.999895E+01   8.999895E+01   8.999895E+01   8.999897E+01   8.999898E+01   8.999899E+01   8.999900E+01   8.999902E+01   8.999903E+01   8.999904E+01   8.999905E+01   8.999906E+01   8.999907E+01   8.999950E+01   8.999953E+01   8.999954E+01   8.999955E+01   8.999956E+01   8.999911E+01   8.999911E+01   8.999911E+01   8.999908E+01   8.999909E+01   8.999899E+01
   8.999998E+01   8.999998E+01   8.999997E+01   8.999898E+01   8.999897E+01   8.999896E+01   8.999896E+01   8.999905E+01   8.999905E+01   8.999903E+01   8.999903E+01   8.999902E+01   8.999896E+01   8.999796E+01   8.999796E+01   8.999695E+01   8.999693E+01   8.999692E+01   8.999790E+01   8.999694E+01   8.999396E+01   8.999395E+01   8.999393E+01   8.999393E+01   8.999691E+01   8.999393E+01   8.999593E+01   8.999694E+01   8.999595E+01   8.999696E+01   8.999697E+01   8.999698E+01   8.999799E+01   8.999900E+01   8.999902E+01   8.999906E+01   8.999904E+01   8.999905E+01   8.999951E+01   8.999952E+01   8.999953E+01   8.999953E+01   8.999954E+01   8.999955E+01   8.999911E+01   8.999911E+01   8.999911E+01   8.999908E+01   8.999908E+01   8.999899E+01
   8.999998E+01   8.999997E+01   8.999898E+01   8.999897E+01   8.999896E+01   8.999896E+01   8.999895E+01   8.999905E+01   8.999903E+01   8.999902E+01   8.999902E+01   8.999796E+01   8.999696E+01   8.999596E+01   8.999595E+01   8.999494E+01   8.999294E+01   8.999293E+01   8.999391E+01   8.999191E+01   8.998299E+01   8.998100E+01   8.997802E+01   8.998194E+01   8.998893E+01   8.997903E+01   8.998299E+01   8.998502E+01   8.998502E+01   8.998993E+01   8.999293E+01   8.999294E+01   8.999602E+01   8.999802E+01   8.999902E+01   8.999904E+01   8.999905E+01   8.999904E+01   8.999950E+01   8.999951E+01   8.999952E+01   8.999953E+01   8.999953E+01   8.999954E+01   8.999954E+01   8.999910E+01   8.999911E+01   8.999908E+01   8.999908E+01   8.999899E+01
   8.999997E+01   8.999997E+01   8.999897E+01   8.999896E+01   8.999896E+01   8.999895E+01   8.999895E+01   8.999904E+01   8.999902E+01   8.999901E+01   8.999900E+01   8.999696E+01   8.999596E+01   8.999397E+01   8.999295E+01   8.998996E+01   8.998695E+01   8.998694E+01   8.998592E+01   8.997697E+01   8.996504E+01   8.996304E+01   8.996602E+01   8.996402E+01   8.996106E+01   8.995510E+01   8.995709E+01   8.996410E+01   8.996909E+01   8.997607E+01   8.998400E+01   8.998798E+01   8.999100E+01   8.999504E+01   8.999803E+01   8.999905E+01   8.999804E+01   8.999806E+01   8.999751E+01   8.999751E+01   8.999852E+01   8.999854E+01   8.999953E+01   8.999953E+01   8.999955E+01   8.999910E+01   8.999910E+01   8.999908E+01   8.999908E+01   8.999908E+01