# BAS6 package for  MODFLOW-NWT, generated by Flopy.
FREE
INTERNAL               1     (FREE) -1 #ibound_layer_0                
         1         1         1         1         1         1         1         1         1         1         1         1         1         1         1         1         1         1         1         1         1         1         1         1         1         1         1         1         1         1         1         1         1         1         1         1         1         1         1         1         1         1         1         1         1         1         1         1         1         1
         1         1         1         1         1         1         1         1         1         1         1         1         1         1         1         1         1         1         1         1         1         1         1         1         1         1         1         1         1         1         1         1         1         1         1         1         1         1         1         1         1         1         1         1         1         1         1         1         1         1
         1         1         1         1         1         1         1         1         1         1         1         1         1         1         1         1         1         1         1         1         1         1         1         1         1         1         1         1         1         1         1         1         1         1         1         1         1         1         1         1         1         1         1         1         1         1         1         1         1         1
         1         1         1         1         1         1         1         1         1         1         1         1         1         1         1         1         1         1         1         1         1         1         1         1         1         1         1         1         1         1         1         1         1         1         1         1         1         1         1         1         1         1         1         1         1         1         1         1         1         1
         1         1         1         1         1         1         1         1         1         1         1         1         1         1         1         1         1         1         1         1         1         1         1         1         1         1         1         1         1         1         1         1         1         1         1         1         1         1         1         1         1         1         1         1         1         1         1         1         1         1
         1         1         1         1         1         1         1         1         1         1         1         1         1         1         1         1         1         1         1         1         1         1         1         1         1         1         1         1         1         1         1         1         1         1         1         1         1         1         1         1         1         1         1         1         1         1         1         1         1         1
         1         1         1         1         1         1         1         1         1         1         1         1         1         1         1         1         1         1         1         1         1         1         1         1         1         1         1         1         1         1         1         1         1         1         1         1         1         1         1         1         1         1         1         1         1         1         1         1         1         1
         1         1         1         1         1         1         1         1         1         1         1         1         1         1         1         1         1         1         1         1         1         1         1         1         1         1         1         1         1         1         1         1         1         1         1         1         1         1         1         1         1         1         1         1         1         1         1         1         1         1
         1         1         1         1         1         1         1         1         1         1         1         1         1         1         1         1         1         1         1         1         1         1         1         1         1         1         1         1         1         1         1         1         1         1         1         1         1         1         1         1         1         1         1         1         1         1         1         1         1         1
         1         1         1         1         1         1         1         1         1         1         1         1         1         1         1         1         1         1         1         1         1         1         1         1         1         1         1         1         1         1         1         1         1         1         1         1         1         1         1         1         1         1         1         1         1         1         1         1         1         1
         1         1         1         1         1         1         1         1         1         1         1         1         1         1         1         1         1         1         1         1         1         1         1         1         1         1         1         1         1         1         1         1         1         1         1         1         1         1         1         1         1         1         1         1         1         1         1         1         1         1
         1         1         1         1         1         1         1         1         1         1         1         1         1         1         1         1         1         1         1         1         1         1         1         1         1         1         1         1         1         1         1         1         1         1         1         1         1         1         1         1         1         1         1         1         1         1         1         1         1         1
         1         1         1         1         1         1         1         1         1         1         1         1         1         1         1         1         1         1         1         1         1         1         1         1         1         1         1         1         1         1         1         1         1         1         1         1         1         1         1         1         1         1         1         1         1         1         1         1         1         1
         1         1         1         1         1         1         1         1         1         1         1         1         1         1         1         1         1         1         1         1         1         1         1         1         1         1         1         1         1         1         1         1         1         1         1         1         1         1         1         1         1         1         1         1         1         1         1         1         1         1
         1         1         1         1         1         1         1         1         1         1         1         1         1         1         1         1         1         1         1         1         1         1         1         1         1         1         1         1         1         1         1         1         1         1         1         1         1         1         1         1         1         1         1         1         1         1         1         1         1         1
         1         1         1         1         1         1         1         1         1         1         1         1         1         1         1         1         1         1         1         1         1         1         1         1         1         1         1         1         1         1         1         1         1         1         1         1         1         1         1         1         1         1         1         1         1         1         1         1         1         1
         1         1         1         1         1         1         1         1         1         1         1         1         1         1         1         1         1         1         1         1         1         1         1         1         1         1         1         1         1         1         1         1         1         1         1         1         1         1         1         1         1         1         1         1         1         1         1         1         1         1
         1         1         1         1         1         1         1         1         1         1         1         1         1         1         1         1         1         1         1         1         1         1         1         1         1         1         1         1         1         1         1         1         1         1         1         1         1         1         1         1         1         1         1         1         1         1         1         1         1         1
         1         1         1         1         1         1         1         1         1         1         1         1         1         1         1         1         1         1         1         1         1         1         1         1         1         1         1         1         1         1         1         1         1         1         1         1         1         1         1         1         1         1         1         1         1         1         1         1         1         1
         1         1         1         1         1         1         1         1         1         1         1         1         1         1         1         1         1         1         1         1         1         1         1         1         1         1         1         1         1         1         1         1         1         1         1         1         1         1         1         1         1         1         1         1         1         1         1         1         1         1
         1         1         1         1         1         1         1         1         1         1         1         1         1         1         1         1         1         1         1         1         1         1         1         1         1         1         1         1         1         1         1         1         1         1         1         1         1         1         1         1         1         1         1         1         1         1         1         1         1         1
         1         1         1         1         1         1         1         1         1         1         1         1         1         1         1         1         1         1         1         1         1         1         1         1         1         1         1         1         1         1         1         1         1         1         1         1         1         1         1         1         1         1         1         1         1         1         1         1         1         1
         1         1         1         1         1         1         1         1         1         1         1         1         1         1         1         1         1         1         1         1         1         1         1         1         1         1         1         1         1         1         1         1         1         1         1         1         1         1         1         1         1         1         1         1         1         1         1         1         1         1
         1         1         1         1         1         1         1         1         1         1         1         1         1         1         1         1         1         1         1         1         1         1         1         1         1         1         1         1         1         1         1         1         1         1         1         1         1         1         1         1         1         1         1         1         1         1         1         1         1         1
         1         1         1         1         1         1         1         1         1         1         1         1         1         1         1         1         1         1         1         1         1         1         1         1         1         1         1         1         1         1         1         1         1         1         1         1         1         1         1         1         1         1         1         1         1         1         1         1         1         1
         1         1         1         1         1         1         1         1         1         1         1         1         1         1         1         1         1         1         1         1         1         1         1         1         1         1         1         1         1         1         1         1         1         1         1         1         1         1         1         1         1         1         1         1         1         1         1         1         1         1
         1         1         1         1         1         1         1         1         1         1         1         1         1         1         1         1         1         1         1         1         1         1         1         1         1         1         1         1         1         1         1         1         1         1         1         1         1         1         1         1         1         1         1         1         1         1         1         1         1         1
         1         1         1         1         1         1         1         1         1         1         1         1         1         1         1         1         1         1         1         1         1         1         1         1         1         1         1         1         1         1         1         1         1         1         1         1         1         1         1         1         1         1         1         1         1         1         1         1         1         1
         1         1         1         1         1         1         1         1         1         1         1         1         1         1         1         1         1         1         1         1         1         1         1         1         1         1         1         1         1         1         1         1         1         1         1         1         1         1         1         1         1         1         1         1         1         1         1         1         1         1
         1         1         1         1         1         1         1         1         1         1         1         1         1         1         1         1         1         1         1         1         1         1         1         1         1         1         1         1         1         1         1         1         1         1         1         1         1         1         1         1         1         1         1         1         1         1         1         1         1         1
         1         1         1         1         1         1         1         1         1         1         1         1         1         1         1         1         1         1         1         1         1         1         1         1         1         1         1         1         1         1         1         1         1         1         1         1         1         1         1         1         1         1         1         1         1         1         1         1         1         1
         1         1         1         1         1         1         1         1         1         1         1         1         1         1         1         1         1         1         1         1         1         1         1         1         1         1         1         1         1         1         1         1         1         1         1         1         1         1         1         1         1         1         1         1         1         1         1         1         1         1
         1         1         1         1         1         1         1         1         1         1         1         1         1         1         1         1         1         1         1         1         1         1         1         1         1         1         1         1         1         1         1         1         1         1         1         1         1         1         1         1         1         1         1         1         1         1         1         1         1         1
         1         1         1         1         1         1         1         1         1         1         1         1         1         1         1         1         1         1         1         1         1         1         1         1         1         1         1         1         1         1         1         1         1         1         1         1         1         1         1         1         1         1         1         1         1         1         1         1         1         1
         1         1         1         1         1         1         1         1         1         1         1         1         1         1         1         1         1         1         1         1         1         1         1         1         1         1         1         1         1         1         1         1         1         1         1         1         1         1         1         1         1         1         1         1         1         1         1         1         1         1
         1         1         1         1         1         1         1         1         1         1         1         1         1         1         1         1         1         1         1         1         1         1         1         1         1         1         1         1         1         1         1         1         1         1         1         1         1         1         1         1         1         1         1         1         1         1         1         1         1         1
         1         1         1         1         1         1         1         1         1         1         1         1         1         1         1         1         1         1         1         1         1         1         1         1         1         1         1         1         1         1         1         1         1         1         1         1         1         1         1         1         1         1         1         1         1         1         1         1         1         1
         1         1         1         1         1         1         1         1         1         1         1         1         1         1         1         1         1         1         1         1         1         1         1         1         1         1         1         1         1         1         1         1         1         1         1         1         1         1         1         1         1         1         1         1         1         1         1         1         1         1
         1         1         1         1         1         1         1         1         1         1         1         1         1         1         1         1         1         1         1         1         1         1         1         1         1         1         1         1         1         1         1         1         1         1         1         1         1         1         1         1         1         1         1         1         1         1         1         1         1         1
         1         1         1         1         1         1         1         1         1         1         1         1         1         1         1         1         1         1         1         1         1         1         1         1         1         1         1         1         1         1         1         1         1         1         1         1         1         1         1         1         1         1         1         1         1         1         1         1         1         1
         1         1         1         1         1         1         1         1         1         1         1         1         1         1         1         1         1         1         1         1         1         1         1         1         1         1         1         1         1         1         1         1         1         1         1         1         1         1         1         1         1         1         1         1         1         1         1         1         1         1
         1         1         1         1         1         1         1         1         1         1         1         1         1         1         1         1         1         1         1         1         1         1         1         1         1         1         1         1         1         1         1         1         1         1         1         1         1         1         1         1         1         1         1         1         1         1         1         1         1         1
         1         1         1         1         1         1         1         1         1         1         1         1         1         1         1         1         1         1         1         1         1         1         1         1         1         1         1         1         1         1         1         1         1         1         1         1         1         1         1         1         1         1         1         1         1         1         1         1         1         1
         1         1         1         1         1         1         1         1         1         1         1         1         1         1         1         1         1         1         1         1         1         1         1         1         1         1         1         1         1         1         1         1         1         1         1         1         1         1         1         1         1         1         1         1         1         1         1         1         1         1
         1         1         1         1         1         1         1         1         1         1         1         1         1         1         1         1         1         1         1         1         1         1         1         1         1         1         1         1         1         1         1         1         1         1         1         1         1         1         1         1         1         1         1         1         1         1         1         1         1         1
         1         1         1         1         1         1         1         1         1         1         1         1         1         1         1         1         1         1         1         1         1         1         1         1         1         1         1         1         1         1         1         1         1         1         1         1         1         1         1         1         1         1         1         1         1         1         1         1         1         1
         1         1         1         1         1         1         1         1         1         1         1         1         1         1         1         1         1         1         1         1         1         1         1         1         1         1         1         1         1         1         1         1         1         1         1         1         1         1         1         1         1         1         1         1         1         1         1         1         1         1
         1         1         1         1         1         1         1         1         1         1         1         1         1         1         1         1         1         1         1         1         1         1         1         1         1         1         1         1         1         1         1         1         1         1         1         1         1         1         1         1         1         1         1         1         1         1         1         1         1         1
         1         1         1         1         1         1         1         1         1         1         1         1         1         1         1         1         1         1         1         1         1         1         1         1         1         1         1         1         1         1         1         1         1         1         1         1         1         1         1         1         1         1         1         1         1         1         1         1         1         1
         1         1         1         1         1         1         1         1         1         1         1         1         1         1         1         1         1         1         1         1         1         1         1         1         1         1         1         1         1         1         1         1         1         1         1         1         1         1         1         1         1         1         1         1         1         1         1         1         1         1
   -999.99
INTERNAL               1  (50E15.6) -1 #strt layer 1                  
   4.499900E+01   4.499900E+01   4.499900E+01   4.499818E+01   4.499461E+01   4.499176E+01   4.498580E+01   4.497659E+01   4.497280E+01   4.497280E+01   4.497141E+01   4.497519E+01   4.497540E+01   4.498050E+01   4.497241E+01   4.496341E+01   4.495202E+01   4.495290E+01   4.495887E+01   4.496006E+01   4.496063E+01   4.497603E+01   4.498054E+01   4.498875E+01   4.499252E+01   4.498952E+01   4.498126E+01   4.498405E+01   4.498322E+01   4.498222E+01   4.498985E+01   4.498874E+01   4.498684E+01   4.498475E+01   4.498371E+01   4.497821E+01   4.497710E+01   4.497561E+01   4.497484E+01   4.497461E+01   4.497561E+01   4.497763E+01   4.497980E+01   4.497961E+01   4.498079E+01   4.498071E+01   4.498181E+01   4.498310E+01   4.498410E+01   4.498581E+01
   4.499900E+01   4.499900E+01   4.499800E+01   4.499679E+01   4.499418E+01   4.498888E+01   4.497910E+01   4.497174E+01   4.496980E+01   4.496790E+01   4.496380E+01   4.496283E+01   4.496180E+01   4.496857E+01   4.495541E+01   4.494841E+01   4.493415E+01   4.493472E+01   4.494560E+01   4.493965E+01   4.492230E+01   4.493345E+01   4.493444E+01   4.495465E+01   4.497617E+01   4.496928E+01   4.496406E+01   4.496244E+01   4.496088E+01   4.496140E+01   4.496974E+01   4.497535E+01   4.497779E+01   4.497593E+01   4.498122E+01   4.497940E+01   4.497661E+01   4.497471E+01   4.497340E+01   4.497271E+01   4.497379E+01   4.497779E+01   4.497863E+01   4.497961E+01   4.498081E+01   4.498073E+01   4.498179E+01   4.498310E+01   4.498410E+01   4.498361E+01
   4.499900E+01   4.499900E+01   4.499815E+01   4.499500E+01   4.498879E+01   4.498310E+01   4.497506E+01   4.496559E+01   4.496459E+01   4.496059E+01   4.495547E+01   4.494992E+01   4.494761E+01   4.492021E+01   4.488947E+01   4.489605E+01   4.490003E+01   4.489885E+01   4.491162E+01   4.489742E+01   4.486625E+01   4.486852E+01   4.487031E+01   4.488039E+01   4.491067E+01   4.487580E+01   4.491507E+01   4.493103E+01   4.491697E+01   4.490704E+01   4.491224E+01   4.491424E+01   4.493526E+01   4.494492E+01   4.496723E+01   4.497130E+01   4.497121E+01   4.497040E+01   4.496870E+01   4.496661E+01   4.496463E+01   4.496961E+01   4.497661E+01   4.497980E+01   4.498079E+01   4.498087E+01   4.498210E+01   4.498263E+01   4.498372E+01   4.498361E+01
   4.499900E+01   4.499761E+01   4.499700E+01   4.499318E+01   4.498162E+01   4.497506E+01   4.496566E+01   4.496059E+01   4.495880E+01   4.495380E+01   4.494553E+01   4.493747E+01   4.491760E+01   4.487708E+01   4.486275E+01   4.485553E+01   4.484819E+01   4.484146E+01   4.483804E+01   4.482447E+01   4.477652E+01   4.476943E+01   4.475731E+01   4.475900E+01   4.481216E+01   4.477294E+01   4.480392E+01   4.483531E+01   4.480085E+01   4.482076E+01   4.482076E+01   4.481897E+01   4.486402E+01   4.490424E+01   4.493884E+01   4.494628E+01   4.494784E+01   4.494931E+01   4.495422E+01   4.495640E+01   4.495271E+01   4.495440E+01   4.497061E+01   4.497886E+01   4.497961E+01   4.498081E+01   4.498210E+01   4.498261E+01   4.498363E+01   4.498561E+01
   4.499900E+01   4.499661E+01   4.499361E+01   4.498876E+01   4.498180E+01   4.497366E+01   4.496474E+01   4.495866E+01   4.495441E+01   4.494792E+01   4.493442E+01   4.491424E+01   4.487700E+01   4.484823E+01   4.483784E+01   4.481065E+01   4.477495E+01   4.476895E+01   4.476474E+01   4.472891E+01   4.464288E+01   4.461361E+01   4.458691E+01   4.461319E+01   4.466129E+01   4.460242E+01   4.461256E+01   4.462909E+01   4.464901E+01   4.470705E+01   4.474269E+01   4.475425E+01   4.479715E+01   4.485924E+01   4.490528E+01   4.491805E+01   4.490892E+01   4.491247E+01   4.491768E+01   4.492431E+01   4.492747E+01   4.493271E+01   4.495332E+01   4.497471E+01   4.497886E+01   4.497961E+01   4.498181E+01   4.498261E+01   4.498481E+01   4.498961E+01
   4.499761E+01   4.499700E+01   4.499427E+01   4.499018E+01   4.498394E+01   4.497581E+01   4.496568E+01   4.495780E+01   4.495241E+01   4.494146E+01   4.492260E+01   4.489033E+01   4.484908E+01   4.481370E+01   4.478769E+01   4.474535E+01   4.471021E+01   4.470179E+01   4.467599E+01   4.458590E+01   4.452616E+01   4.450891E+01   4.451800E+01   4.450040E+01   4.447482E+01   4.446197E+01   4.447039E+01   4.450211E+01   4.454020E+01   4.459037E+01   4.465225E+01   4.469990E+01   4.472054E+01   4.478276E+01   4.485291E+01   4.488505E+01   4.488228E+01   4.488447E+01   4.488132E+01   4.488635E+01   4.490033E+01   4.491264E+01   4.492647E+01   4.495663E+01   4.497481E+01   4.497761E+01   4.498061E+01   4.498361E+01   4.498561E+01   4.499102E+01