# UPW package for  MODFLOW-NWT, generated by Flopy.
        55    -1E+30         0         0 
         1
         0
   1.000000E+00
         0
         0
INTERNAL               1  (50E15.6) -1 #hk layer 1                    
   4.664099E+00   8.578403E+01   3.890731E+00   1.125395E+00   8.741609E-01   2.665436E+00   5.656206E-01   2.699021E+00   1.504528E+02   1.075574E+01   1.077588E+01   1.727467E+00   4.690465E+01   7.226777E+01   1.095752E+01   6.182030E+00   9.045779E+00   1.971636E+00   1.252831E+00   5.933218E-01   2.538027E-01   1.866051E+00   2.055777E+00   3.677333E-01   1.228191E+00   5.101587E-01   1.793921E+00   1.145108E-01   2.241951E-01   4.446495E-02   1.240260E-02   1.862952E+00   6.430204E+00   6.011046E-01   3.864279E+00   2.750322E+02   5.672062E+02   3.006121E+02   2.204872E+02   1.662820E+03   5.777349E+02   5.199069E+03   7.689188E+03   6.048265E+03   2.300098E+03   1.000000E+04   1.000000E+04   1.000000E+04   1.000000E+04   1.000000E+04
   2.600674E+01   1.612114E+01   1.995800E+00   1.957721E+00   7.028317E-01   6.147910E-01   4.438849E+00   2.820579E+00   1.889275E+01   1.203851E+01   3.201705E+00   5.540145E+00   1.384984E+01   1.026125E+01   2.166634E+01   3.064048E+00   4.174575E+01   1.450965E+01   7.149400E-01   1.367338E-01   2.100556E+00   3.333588E+00   1.156027E+01   1.324317E+00   6.655989E-01   1.727822E-01   3.979678E+00   1.094914E+00   1.466927E-01   2.059886E+00   9.831798E-02   4.493104E-01   1.005304E+00   2.110489E+00   3.454866E+00   3.910829E+02   1.062004E+03   7.881252E+02   1.843190E+02   5.213215E+02   8.815190E+02   1.000000E+04   4.945235E+03   1.900991E+03   1.000000E+04   1.000000E+04   1.000000E+04   1.000000E+04   1.000000E+04   5.442342E+03
   3.953785E+01   6.499214E+00   1.975066E-01   1.529850E-01   1.991779E-01   1.681210E-01   3.732034E-01   1.192963E+00   6.481822E-01   9.043165E+00   1.012664E+01   3.773196E+01   2.836964E+01   2.112281E+01   2.934796E+02   2.155261E+01   4.319598E+00   2.626965E+00   6.422944E-01   2.791021E-02   1.777403E-01   2.298825E+00   1.982785E+00   3.545648E+00   5.468412E+00   1.452710E+01   1.031432E+01   3.861631E+00   9.343016E-01   2.626371E+01   3.342220E+00   1.377717E+00   1.574615E+00   5.567503E+01   3.752316E+01   3.689950E+01   2.964661E+01   7.059169E+01   1.720077E+02   1.174383E+03   3.699415E+02   5.393606E+02   2.771723E+03   4.556006E+02   4.476252E+03   1.000000E+04   1.000000E+04   1.000000E+04   1.000000E+04   1.000000E+04
   1.688432E+01   8.308930E+00   2.061490E-01   3.907915E-02   3.572128E-02   1.206413E-01   6.262874E-01   7.354457E+00   1.955494E+00   7.062838E+00   1.091510E+01   3.102660E+01   7.857051E+00   3.903386E+01   2.045905E+01   8.606277E+01   1.331703E+01   4.660765E+00   4.053285E-01   1.724250E-01   1.432983E-01   4.140321E-01   1.700089E+00   4.506886E+00   8.942486E+00   2.193011E+01   3.553544E+00   1.218591E+00   6.537440E-01   6.032859E+00   1.009316E+01   6.379460E+00   3.297997E+01   1.945170E+01   9.766843E+01   5.589971E+02   3.405663E+01   1.152339E+02   9.351763E+01   2.630569E+02   2.341133E+02   1.838004E+02   2.320816E+03   9.482916E+03   1.000000E+04   1.000000E+04   1.000000E+04   1.000000E+04   1.000000E+04   2.012208E+03
   4.367196E+00   8.233417E-01   2.804662E+00   1.322089E+00   1.188193E-01   1.491723E-01   1.300810E+00   1.818994E+01   2.197135E+00   7.506461E+00   1.185979E+01   1.899601E+01   1.214437E+01   5.454778E+01   7.426071E+01   5.001787E+01   1.041102E+01   5.299124E+01   1.334309E+01   1.970580E+00   2.140647E+00   1.065900E+00   3.442222E+00   7.043038E+00   6.141221E+00   1.072848E+02   9.260499E+01   6.441328E+00   3.088042E+00   1.078691E+01   6.515238E-01   8.783857E+01   4.885860E+01   1.118653E+01   3.851118E+01   6.306609E+01   3.940553E+02   4.569323E+02   8.726680E+02   3.087447E+02   2.318658E+02   1.233422E+03   6.596462E+02   8.653850E+02   1.788898E+03   1.000000E+04   1.000000E+04   9.489734E+03   8.748346E+03   4.014881E+02
   3.757147E+00   7.766920E+00   4.277333E+00   5.853167E-01   2.459928E-01   2.767224E+00   4.623364E+00   1.331600E+01   5.731871E+01   2.850256E+01   1.848076E+01   1.300964E+01   3.746023E+01   1.605200E+01   1.942220E+00   2.271642E+01   8.807467E+01   2.325341E+02   5.861297E+01   1.710707E+02   6.057141E+01   1.945519E+01   3.151714E+01   2.839249E+01   4.441360E+01   1.036205E+02   9.064671E+01   5.332109E+01   3.051687E+00   6.390676E+00   3.852611E+00   1.751682E+01   4.843465E+01   1.270419E+01   1.955805E+01   5.782141E+01   1.289936E+03   1.894086E+03   6.990973E+02   8.008281E+03   5.040086E+02   2.126772E+03   2.620708E+03   1.320680E+03   2.307348E+03   4.191713E+03   1.000000E+04   1.000000E+04   3.682372E+03   7.885366E+01
   7.812483E+00   5.906063E-01   2.836704E+00   2.423628E-01   1.117157E+00   2.001763E+01   1.650717E+01   9.897150E+01   3.074284E+01   6.090507E+01   8.441745E+00   4.220495E+01   2.335130E+01   1.043178E+02   1.032078E+02   1.320119E+02   3.847216E+02   5.165328E+02   3.331744E+01   6.100748E+01   1.527213E+03   2.118194E+03   4.517669E+02   4.482390E+02   1.688965E+03   6.094960E+02   3.327657E+02   3.451482E+01   7.530936E+01   1.122799E+01   2.186774E+01   2.704930E+01   2.672241E+01   2.206882E+01   1.972959E+01   1.983619E+01   1.904602E+02   3.091344E+03   3.374282E+03   5.151348E+03   7.037756E+02   1.108297E+03   1.000000E+04   7.307145E+02   2.419754E+03   1.732061E+03   3.853743E+03   1.840510E+03   2.505546E+03   9.693787E+02
   5.019876E+00   5.990484E+00   3.081512E+00   1.199298E+00   9.444757E-01   9.007506E+01   7.398373E+01   4.380005E+01   5.484963E+01   1.318264E+00   7.368686E+00   1.277709E+01   3.924591E+01   1.689249E+02   2.199578E+02   1.239848E+03   1.406391E+03   1.356634E+03   3.484021E+03   1.000000E+04   1.000000E+04   1.000000E+04   1.460343E+02   6.029196E+02   1.000000E+04   1.000000E+04   3.859942E+03   1.502017E+03   1.080795E+02   6.719601E+01   2.117760E+01   3.223358E+01   6.402023E+01   4.196672E+01   6.564278E+01   3.891006E+01   2.141874E+02   1.068132E+03   3.668486E+03   7.259437E+03   5.165598E+01   1.490218E+03   1.000000E+04   1.000000E+04   4.507507E+03   3.561177E+03   1.000000E+04   1.000000E+04   1.000000E+04   1.614522E+03
   7.904564E+00   1.604680E+00   2.377351E+01   8.689264E+00   1.226772E+01   3.021953E+01   2.380325E+01   1.710016E+01   1.447581E+00   3.193949E-01   3.098146E-01   6.966133E+00   3.640362E+01   4.880012E+01   4.781322E+01   2.243759E+02   6.920823E+02   1.508217E+03   1.357804E+03   5.091626E+03   1.000000E+04   2.989418E+03   9.405527E+02   4.996153E+03   1.370562E+03   6.946902E+03   1.000000E+04   1.668618E+03   3.156221E+01   1.756234E+01   8.538202E+00   1.162985E+02   1.254058E+02   8.077235E+01   3.647850E+01   4.076230E+02   7.952599E+01   1.244751E+03   1.000000E+04   1.000000E+04   7.581679E+02   1.325983E+03   2.577675E+03   3.647581E+03   1.000000E+04   6.055234E+03   1.000000E+04   1.000000E+04   1.000000E+04   5.745166E+03
   3.089638E+01   1.687190E+01   6.672902E+01   1.703002E+02   5.829365E+01   4.571700E+01   5.003202E+01   3.415237E+01   4.505970E+00   2.594523E+00   1.689118E-01   1.302110E+01   1.245539E+01   6.911004E+00   5.914424E+00   3.515677E+01   5.040789E+02   9.990464E+03   8.124438E+03   1.000000E+04   9.713869E+03   3.356114E+02   6.049031E+02   2.875719E+03   2.505672E+02   1.391887E+03   4.148358E+02   1.373152E+02   2.277866E+02   2.353806E+01   3.452017E+00   3.807037E+01   1.600259E+02   1.789996E+01   1.905253E+02   2.731569E+02   7.460784E+01   2.001362E+03   1.000000E+04   1.000000E+04   5.197860E+03   9.491934E+03   8.066313E+02   1.466793E+03   9.817236E+03   1.000000E+04   1.000000E+04   1.000000E+04   1.000000E+04   1.000000E+04
   2.580193E+01   8.533759E+01   2.077361E+02   3.252439E+02   9.796428E+01   1.080751E+02   1.817275E+02   1.110816E+01   4.783244E+01   1.071491E+00   5.454799E+00   1.427497E+01   4.529440E+00   6.372485E+00   3.344768E+01   1.355744E+02   7.339327E+02   3.900556E+02   9.893499E+02   5.357461E+03   1.213368E+03   1.923414E+03   1.261035E+03   7.093292E+03   1.059876E+03   4.530827E+02   4.495862E+01   1.696096E+02   1.559904E+02   1.210917E+02   1.010403E+01   8.793103E+00   3.160710E+00   4.031227E+00   4.516283E+01   1.124372E+02   1.699252E+02   5.950043E+03   7.721328E+03   1.000000E+04   7.186858E+03   7.047356E+03   4.876360E+02   1.000000E+04   6.377426E+03   2.528653E+03   1.000000E+04   9.530446E+03   1.000000E+04   1.000000E+04
   7.102653E+00   6.150490E+01   5.989529E+01   3.028584E+02   3.079887E+01   1.636823E+01   4.490066E+01   2.181925E+01   3.010301E+01   1.708720E+01   2.169908E+00   1.159463E+00   1.097779E+00   2.630060E-01   1.265741E+00   1.496711E+01   4.305583E+01   1.221764E+02   2.512905E+01   3.126223E+02   1.344715E+02   1.604174E+02   2.271219E+02   2.539574E+03   1.209555E+02   1.880500E+01   2.814244E+01   7.060055E+02   1.089441E+03   2.686620E+03   4.168941E+01   1.343615E+00   1.470467E+00   2.931099E+00   1.392876E+00   3.626014E+00   2.760559E+01   1.229678E+03   1.000000E+04   1.000000E+04   5.287901E+03   1.000000E+04   1.000000E+04   1.773341E+03   7.714051E+02   2.648028E+03   7.905053E+03   1.000000E+04   1.000000E+04   1.000000E+04
   3.217001E+02   4.432189E+02   4.316381E+02   5.345535E+02   9.059753E+01   2.448569E+02   1.639599E+02   5.197413E+01   2.424004E+01   5.701620E+00   8.990653E+00   4.692677E+00   6.388633E-01   3.606654E+00   1.077710E+01   1.677663E+02   1.717694E+01   2.876590E+01   2.651011E+01   1.875705E+01   6.287928E+02   1.681714E+02   2.092482E+02   5.077158E+02   5.985613E+01   8.425331E+02   3.984767E+01   2.840518E+02   7.029941E+03   4.449208E+03   7.172033E+02   4.163536E+01   5.422865E+01   2.178580E+01   1.769401E+01   6.134431E+01   2.209320E+01   1.718456E+02   1.096367E+03   2.573331E+02   4.082362E+02   3.241139E+02   1.257221E+03   2.264839E+02   3.543837E+03   1.017032E+03   2.413618E+03   1.000000E+04   1.000000E+04   6.883138E+02
   2.560262E+02   3.820286E+03   9.652685E+02   6.388139E+02   1.276134E+01   3.195511E+02   1.417663E+03   1.451423E+02   1.997376E+01   1.974073E+01   1.368153E+01   2.781885E+00   5.155990E-01   9.978112E+00   3.195523E+01   9.661407E+01   6.479937E+01   1.822797E+01   1.530320E+00   1.053469E+01   7.265525E+01   1.600165E+03   1.077524E+03   1.461343E+02   1.975915E+02   4.571168E+02   6.132988E+02   1.210826E+03   2.862513E+03   3.158546E+03   4.027874E+02   1.526380E+02   1.487570E+01   1.222268E+01   1.366548E+02   6.221151E+01   8.557908E+00   1.404638E+01   6.469834E+00   5.626843E+01   2.189066E+01   3.614860E+01   2.817499E+02   1.932778E+03   6.659670E+03   1.982187E+02   1.512927E+03   3.929342E+03   8.372868E+02   1.622770E+03
   1.378196E+02   2.021922E+03   1.627297E+03   3.777309E+02   1.497704E+01   3.819086E+01   6.324382E+02   2.249150E+03   3.274520E+03   1.571525E+02   3.150606E+00   5.163161E+00   6.420753E+01   3.472669E+01   3.511354E+01   9.037232E+00   1.570777E+01   6.246464E+01   1.370759E+00   7.013578E+00   8.957646E+01   4.255467E+03   5.322702E+03   3.848258E+03   8.756962E+03   4.682311E+03   1.355563E+03   5.729547E+02   4.818535E+02   1.790748E+03   1.956573E+02   3.478349E+01   2.203993E+02   1.728761E+02   1.751191E+01   2.796587E+01   9.236304E+00   3.213231E+00   2.630836E+00   1.733744E+01   2.013011E+02   4.685352E+02   8.585549E+02   7.221821E+03   3.257945E+03   1.000000E+04   1.000000E+04   2.893848E+03   3.147058E+03   2.855727E+03
   2.555017E+02   6.960140E+02   7.110156E+02   3.285388E+02   1.956917E+01   5.855142E+01   4.670233E+02   3.045891E+03   1.803253E+03   3.890534E+01   8.437242E+00   1.654541E+00   7.695701E+00   1.940080E+01   7.337260E+00   4.110648E+00   1.763712E+00   1.847905E+00   1.347639E+00   1.651310E+01   9.656452E+01   4.525738E+03   9.951865E+03   3.541611E+03   3.988638E+03   3.098897E+02   2.682267E+02   3.153078E+02   2.360131E+02   3.620060E+02   1.159508E+03   2.577617E+03   7.597518E+02   1.489015E+02   2.455924E+01   1.058665E+02   3.218357E+01   3.839716E+00   6.107991E+00   1.932790E+01   1.104443E+02   6.586862E+01   2.626851E+03   1.000000E+04   1.000000E+04   1.000000E+04   1.000000E+04   1.000000E+04   5.477818E+03   7.547830E+02
   9.251309E+01   1.777989E+03   1.063290E+03   2.999647E+02   1.034376E+03   1.024611E+02   2.343389E+02   5.448912E+02   9.432678E+02   7.378238E+01   8.950535E+00   1.178370E+00   1.261534E+00   2.880945E+00   1.845572E+00   6.684176E-01   2.778315E-01   1.235889E+00   5.233346E+00   4.396635E+00   8.652897E+00   1.251433E+02   1.080813E+03   1.893368E+03   3.787100E+02   3.848205E+02   4.580587E+02   4.354824E+02   1.349431E+02   8.782433E+02   4.896834E+02   1.405701E+03   2.297089E+02   5.768365E+02   3.602248E+02   5.855467E+01   1.315092E+02   2.348267E+01   1.463433E+01   9.202262E+01   1.356045E+01   1.345094E+02   5.322290E+02   1.622407E+03   1.196695E+03   8.632025E+02   4.231071E+03   1.000000E+04   1.000000E+04   2.102580E+02
   2.755171E+01   2.025877E+01   5.937540E+01   4.350294E+02   2.992219E+02   2.295288E+02   9.982422E+01   6.449176E+02   1.009668E+02   1.730107E+02   2.291812E+00   4.074483E-01   4.860483E+00   9.580846E+00   5.488455E+00   1.098848E+01   3.189945E+00   4.910284E+00   1.753948E+00   6.519927E+00   8.781965E-01   1.174697E+01   3.012133E+02   1.960927E+03   1.121359E+03   1.106259E+02   8.516161E+01   2.099528E+01   1.097962E+00   1.458439E+01   1.883872E+02   5.068371E+01   7.104636E+02   6.480076E+01   1.383044E+01   1.112228E+01   1.085578E+02   1.985380E+01   7.988436E+01   8.380592E+01   3.430505E+01   8.890506E+00   7.929039E+02   2.587722E+02   3.963183E+01   1.287384E+03   4.082522E+03   6.406435E+03   4.045419E+03   4.702766E+01
   8.896703E+00   8.970530E+00   1.891651E+00   1.933575E+01   1.175374E+01   1.014421E+01   9.796468E+01   9.493782E+00   3.702142E+02   1.095018E+02   9.496206E+00   1.014957E+00   3.981759E+00   7.584292E+00   3.241877E+00   3.044222E+00   3.464281E+00   1.858003E+01   1.569945E+01   2.849479E+00   8.530259E+00   6.075531E+00   1.605384E+02   1.418535E+03   4.701530E+02   2.458656E+03   9.366776E+01   3.525429E+01   1.135423E+00   8.738272E-01   9.829424E+00   1.056124E+01   3.503734E+00   2.427027E+01   2.148353E+01   8.741676E+01   9.171190E+01   6.859009E+01   3.088266E+01   5.833365E+01   6.731518E+01   1.248559E+02   1.469857E+03   8.803884E+02   3.334973E+03   6.635952E+02   7.739705E+02   4.189666E+02   2.472686E+02   3.215751E+01
   8.615710E-01   1.995234E+00   4.453021E+00   1.244239E+01   4.541528E+00   8.902207E+00   1.076912E+01   1.003770E+01   4.109925E+01   3.223725E+01   5.156231E+01   2.983748E+00   5.843240E+00   9.473391E+00   2.650924E+01   3.241902E+01   3.832463E+01   2.532942E+01   3.905370E+01   1.681638E+02   3.621571E+00   3.921931E+01   1.486845E+02   1.621251E+02   1.498239E+02   1.021844E+02   1.130468E+02   3.093535E+00   5.753453E-01   4.710319E+00   3.065901E+00   2.577204E-01   1.050282E+00   1.230206E+00   9.781435E+00   1.111949E+02   1.640872E+02   3.031285E+01   5.827534E+00   1.755440E+02   4.260957E+01   2.374166E+01   1.677556E+02   3.301239E+02   3.107878E+02   1.553234E+02   9.156120E+01   1.364060E+02   1.414093E+02   9.380459E+01
   4.773081E-01   2.092937E+00   2.133962E+00   3.113733E+00   6.914364E+00   2.031088E+01   2.851432E+00   6.152571E+01   1.123264E+02   3.072183E+01   3.456762E+01   3.476900E+01   8.788341E+01   1.116843E+02   4.316158E+01   3.922630E+02   4.072997E+02   2.986681E+02   9.170832E+01   5.506613E+02   7.820645E+02   6.347222E+02   3.052670E+02   5.961687E+01   1.867561E+01   2.666476E+01   3.646523E+01   1.923749E+00   2.369672E-01   1.586467E+00   4.452528E+00   1.559104E-01   1.317424E+00   1.764715E+00   2.044899E+00   2.225054E+02   1.230832E+02   3.458908E+00   2.600071E+00   3.559919E+01   1.456796E+01   2.468712E+01   1.044651E+01   9.929904E+01   6.552018E+02   5.027578E+03   5.278199E+02   2.553391E+02   9.411404E+01   3.037130E+02
   6.567087E-01   1.483750E-01   1.585177E-01   6.349849E-01   3.872505E+00   1.957653E+00   3.724553E+00   1.933481E+01   1.714772E+01   5.001195E+01   8.827753E+01   6.676466E+01   2.955695E+02   1.000000E+04   8.152264E+02   1.000000E+04   2.828705E+03   1.022498E+03   2.613820E+02   7.158561E+02   2.392807E+03   5.183860E+02   1.742557E+02   9.945078E+00   1.395726E+00   3.051136E+01   3.002666E+01   1.079532E+00   3.829422E-01   8.468094E-01   1.483832E-01   9.609818E-03   6.247284E-02   7.078262E-01   5.875002E+01   9.167851E+01   1.406772E+01   7.726955E+01   2.141607E+00   6.103442E+01   4.218981E+02   1.501719E+01   1.656369E+01   7.108001E+01   3.922792E+02   1.792799E+03   9.821874E+01   4.231391E+02   3.457756E+01   8.789135E+01
   7.109452E-01   6.074649E-01   6.548712E-02   1.467458E+00   1.097282E+00   3.269359E+00   3.565871E+00   9.901979E+00   2.047367E+01   1.656487E+02   1.358743E+02   7.315303E+01   2.304029E+03   1.712445E+03   5.981460E+03   1.000000E+04   3.838897E+03   1.649483E+02   3.184481E+02   4.293408E+02   3.521307E+03   1.999030E+02   3.890717E+01   2.405649E+01   2.354689E+01   3.906348E+01   1.144617E+01   4.584239E+00   5.868821E-01   2.465492E-01   9.761263E-02   1.066588E-01   3.660330E-01   5.174751E-01   2.483434E+00   1.122120E+02   1.944189E+02   4.323310E+01   6.136752E+00   5.363418E+01   1.210839E+01   1.313827E+01   6.665325E+01   3.005083E+02   2.575359E+02   3.028450E+02   2.204713E+02   5.275817E+01   1.528962E+02   3.173137E+03
   3.592173E+00   1.867284E+00   8.507603E-02   2.203122E-02   1.180783E+00   2.661709E-01   3.452472E-01   7.854996E+00   6.928717E+00   4.709089E+01   4.881683E+02   9.222078E+01   1.198903E+03   4.316711E+03   1.000000E+04   1.000000E+04   1.000000E+04   2.369639E+02   8.288815E+02   2.855576E+02   1.000000E+04   5.185478E+02   3.198091E+02   2.375009E+01   3.593218E+01   2.499212E+01   2.743787E+01   4.788615E+01   3.060328E+00   7.884654E-01   1.552464E+00   4.988475E-01   1.459639E-01   1.018713E+00   3.100831E+01   8.693966E+01   3.185235E+02   1.976804E+02   4.558910E+01   3.287901E+00   5.711002E+01   1.110673E+02   8.733564E+01   4.302732E+01   6.443776E+01   2.746958E+02   1.548207E+02   6.839643E+01   1.156018E+02   1.294130E+03
   8.970729E+00   5.060865E+00   2.649559E-01   2.835400E-01   9.382088E-01   1.109400E-01   1.523552E-01   8.413457E-01   1.060467E+01   4.608857E+00   2.754409E+01   2.196937E+02   3.915120E+03   7.096573E+03   1.000000E+04   1.000000E+04   1.000000E+04   2.992793E+03   1.902002E+03   1.000000E+04   1.000000E+04   5.797925E+02   5.073640E+02   1.330505E+01   3.933513E+01   1.518559E+01   8.161131E+01   6.531958E+00   5.339932E+00   5.762317E-01   4.640071E+00   2.090554E+00   6.630099E-01   3.950940E+00   1.776512E+01   7.548561E+00   5.091248E+01   1.040583E+02   7.795772E+00   1.082430E+01   5.740075E+01   2.865883E+01   6.210810E+01   2.500986E+01   1.071190E+01   4.363042E+02   3.012657E+01   1.919901E+01   1.774249E+01   2.473484E+02
   6.077358E+01   2.779232E+01   5.097247E+00   3.238434E+00   3.040758E-01   2.095271E-01   1.223248E+00   1.353094E+00   1.269457E+01   5.845873E+00   1.524456E+02   1.660225E+01   1.055178E+02   7.359898E+02   1.946456E+03   6.661082E+03   7.443639E+03   1.000000E+04   8.488518E+03   1.768008E+03   6.365510E+02   6.556484E+01   4.358940E+01   8.155824E+01   4.489705E+01   3.127879E+01   8.285924E+00   8.159979E+00   4.624638E+01   9.095137E+01   2.128679E+01   5.735180E+00   4.853956E+00   9.758231E+01   6.075165E+00   3.837776E+01   5.961034E+00   9.931541E+01   4.217706E+01   1.762360E+02   3.297745E+02   7.279141E+01   1.234056E+02   2.701439E+01   2.395827E+01   1.174677E+02   5.162403E+01   9.808534E+01   4.563461E+01   1.035894E+02
   1.760530E+02   3.060355E+03   7.230950E+02   4.468627E+02   2.393678E+00   1.012542E+00   2.074023E+00   6.821143E+00   3.983502E+01   2.056754E+01   1.822123E+02   1.961893E+02   4.898388E+02   9.531903E+02   1.381850E+03   3.222657E+02   3.538319E+02   9.501906E+02   1.090247E+03   3.077391E+03   7.607667E+02   4.152681E+01   3.290667E+01   1.570055E+02   1.426012E+02   1.483793E+02   9.208938E+00   4.282862E+00   1.403305E+01   2.724369E+01   6.226005E+00   8.864718E+00   1.710953E+01   3.422925E+01   1.710885E+01   1.309630E+01   3.029266E+01   6.707922E+01   1.717778E+03   6.100220E+02   2.249499E+02   1.872788E+02   2.498983E+02   3.170046E+02   2.765234E+01   5.423753E+01   1.910758E+01   4.780339E+01   3.732817E+02   3.789264E+03
   3.546177E+02   2.318492E+03   8.236652E+02   1.525577E+02   1.839895E+01   6.170770E+00   1.303677E+01   4.859415E+00   2.297921E+00   8.367781E+00   3.746741E+01   5.341495E+01   3.235001E+02   4.706458E+02   6.422352E+01   5.693949E+01   6.417007E+01   3.747561E+03   5.437441E+02   1.000000E+04   3.153331E+03   1.555801E+02   9.913561E+00   1.367131E+02   5.961612E+03   2.134953E+02   7.585844E+01   1.989706E+01   3.083131E+00   5.664424E+00   2.340116E+00   1.107975E+01   4.617665E+02   5.589230E+01   7.808252E+00   2.206404E+02   2.273872E+01   1.533410E+01   3.589832E+02   3.016364E+02   1.926826E+02   8.938184E+02   7.113375E+02   5.544331E+02   2.993123E+01   2.204348E+01   3.755888E+01   5.873885E+00   8.679731E+00   8.073759E+02
   7.420293E+01   4.391706E+02   7.162919E+02   6.353619E+01   1.287898E+01   1.295028E+00   1.493331E+00   3.547887E+00   1.150118E+01   5.656797E+01   1.643380E+02   7.292276E+01   1.785038E+02   1.017152E+01   9.660853E+01   7.932545E+01   1.706214E+03   4.674009E+02   3.433166E+02   2.538810E+03   1.000000E+04   1.233072E+03   5.846609E+01   3.461380E+01   1.167599E+02   2.621255E+02   6.498750E+01   6.019087E+02   4.290909E+01   8.497805E+02   3.035042E+01   8.269197E+01   5.960104E+02   1.114505E+02   6.609342E+00   1.429323E+01   2.258537E+01   3.544113E+02   8.200502E+01   9.356707E+02   1.897907E+03   3.127545E+03   6.564813E+02   1.567554E+02   4.316516E+01   1.815438E+01   7.768565E+01   1.186452E+01   2.430226E+02   1.352386E+03
   9.164130E+01   4.655010E+00   4.309192E+01   3.367733E+00   4.316293E+00   4.124459E+00   3.160856E+00   1.761695E+01   1.083004E+01   1.418136E+00   1.569584E+00   1.439285E+02   1.169438E+01   4.329684E+00   6.623832E+01   1.157884E+02   1.418314E+02   1.842583E+02   4.048365E+02   3.939517E+03   3.490201E+03   4.153940E+03   1.599326E+03   8.438347E+01   6.889233E+01   1.806230E+02   1.667326E+02   1.226706E+01   1.741878E+02   2.156188E+02   2.877407E+03   6.970272E+02   4.654719E+02   6.884849E+01   6.856443E+00   8.891906E+00   3.156129E+02   2.551416E+03   3.630864E+03   1.564297E+03   1.909740E+03   3.146275E+03   2.831303E+02   3.852027E+02   1.405877E+02   1.233899E+02   8.293165E+01   4.748890E+01   6.789748E+02   1.323957E+03
   2.038373E+00   8.763535E-01   2.841617E+00   1.343267E+00   4.875815E-01   8.026186E-02   4.799625E-01   1.604174E+00   5.569940E+00   3.963355E+00   2.578214E+01   2.516740E+01   4.523269E+01   2.846243E+02   9.606841E+01   1.828756E+02   7.471963E+01   7.258791E+01   1.237887E+02   5.232051E+02   5.576480E+03   5.899131E+03   4.660317E+03   5.162272E+03   1.999788E+03   3.569689E+02   4.351704E+01   6.020845E+01   2.147635E+02   1.000000E+04   6.946300E+03   2.618703E+03   6.148027E+02   4.014073E+02   5.222820E+02   2.870769E+01   3.546023E+02   9.926140E+02   6.801267E+03   1.000000E+04   1.000000E+04   1.000000E+04   2.458024E+03   2.742441E+02   5.490730E+01   1.073585E+02   2.166932E+03   3.122014E+03   3.798837E+03   3.343070E+03
   9.103585E-01   3.090075E-01   1.131684E+00   2.781290E-01   5.987827E+00   1.615596E+00   1.821969E+00   8.593432E+00   2.909324E+00   2.799837E+00   1.228390E+01   1.035485E+01   2.807700E+01   2.129315E+02   1.255789E+02   1.634663E+01   7.629283E+00   1.103840E+02   1.069593E+03   9.958958E+03   5.952580E+03   1.633228E+03   4.849399E+03   1.000000E+04   2.547943E+03   3.484047E+03   8.621086E+02   6.733762E+02   6.474057E+03   1.000000E+04   1.000000E+04   1.443522E+03   4.082367E+03   3.080229E+03   3.241444E+02   1.415426E+02   6.044865E+02   5.840843E+02   6.357872E+03   8.312187E+03   1.000000E+04   4.362153E+03   3.320553E+03   2.351213E+02   4.444593E+01   2.129193E+02   7.415778E+02   8.367720E+03   7.280708E+03   1.000000E+04
   1.347329E-01   8.978025E-02   4.420836E-01   2.154761E-01   3.861686E+00   4.172429E-01   2.022888E-01   5.284567E-01   6.735596E-01   5.579864E-02   4.906361E-01   2.119720E+00   1.818871E+01   3.577612E+01   1.188900E+01   1.254683E+01   1.859171E+01   4.575984E+01   8.913455E+01   1.252692E+03   7.982961E+03   8.515838E+02   9.612916E+02   3.923306E+03   2.446338E+03   2.103062E+03   2.378787E+03   1.000000E+04   1.000000E+04   1.000000E+04   1.000000E+04   1.000000E+04   2.131227E+03   8.898074E+03   3.087487E+03   6.098399E+03   2.987791E+03   1.000000E+04   1.000000E+04   1.000000E+04   9.137744E+03   9.685596E+03   1.756479E+03   1.211644E+02   7.633181E+01   1.067411E+03   3.360553E+03   1.000000E+04   1.000000E+04   1.000000E+04
   3.078956E+00   9.454608E-01   1.792130E-01   1.100906E+00   1.331129E+00   1.100775E+00   2.458437E-01   3.908317E-01   8.484994E-01   7.551713E+00   5.211213E+00   8.681851E+00   2.164780E+01   2.652705E+01   6.018038E+02   1.007192E+01   9.036935E+01   1.008217E+03   1.110361E+02   8.597918E+02   1.000000E+04   2.581157E+03   1.840472E+03   2.298021E+03   7.344825E+03   1.000000E+04   1.000000E+04   1.000000E+04   5.066648E+03   1.000000E+04   1.000000E+04   1.000000E+04   1.000000E+04   3.739369E+03   6.213596E+02   3.603754E+03   8.505228E+03   1.000000E+04   9.560683E+03   1.000000E+04   1.161510E+03   3.884784E+01   6.500278E+01   1.892449E+01   2.550105E+01   1.547451E+03   5.932226E+03   9.625121E+03   1.000000E+04   1.000000E+04
   3.953258E+01   1.123486E+01   4.371975E+00   7.994167E-01   2.546704E-01   4.007378E-01   7.298952E-02   4.098378E-01   2.252153E+00   1.147447E+01   6.869270E+01   2.901250E+00   4.870622E+00   1.017459E+01   7.123496E+00   1.827709E+02   2.364561E+03   1.000000E+04   5.090712E+02   6.550940E+03   5.948295E+03   3.161566E+03   7.588622E+03   1.000000E+04   1.000000E+04   1.000000E+04   1.000000E+04   1.000000E+04   1.000000E+04   1.000000E+04   1.000000E+04   1.000000E+04   2.915256E+03   4.678903E+03   7.548540E+03   4.105573E+03   1.000000E+04   1.000000E+04   1.000000E+04   2.323235E+02   1.836492E+02   1.049035E+02   2.136594E+01   9.112521E+01   4.245685E+02   2.323951E+03   1.489624E+03   6.361345E+02   1.000000E+04   1.000000E+04
   5.837390E+00   1.771010E+00   1.509166E+01   4.502510E+00   1.727994E-01   6.266790E-01   2.572445E+00   1.334019E+00   3.775088E+00   2.004616E+01   3.240524E+01   3.952008E+01   3.765383E+01   8.658935E+01   7.601646E+01   2.450902E+02   7.477264E+03   5.744012E+03   1.000000E+04   1.000000E+04   1.000000E+04   1.000000E+04   1.000000E+04   1.000000E+04   1.000000E+04   1.000000E+04   1.000000E+04   1.000000E+04   1.000000E+04   1.000000E+04   1.000000E+04   1.000000E+04   1.000000E+04   1.000000E+04   1.000000E+04   5.910611E+03   1.000000E+04   1.000000E+04   6.628772E+03   4.944804E+01   2.079242E+01   3.295134E+01   3.665555E+02   5.191189E+03   1.557304E+03   6.316449E+02   3.985960E+02   4.170420E+02   1.946497E+02   1.756165E+03
   4.719660E+00   2.822340E+00   1.402353E+01   1.327595E+00   5.623004E+00   3.206675E+01   1.445033E+01   6.582229E-01   7.766502E+00   1.813218E+01   2.774393E+01   1.085578E+01   2.396578E+01   2.028752E+02   1.170711E+03   1.000000E+04   6.190813E+03   1.000000E+04   1.000000E+04   1.000000E+04   1.000000E+04   1.000000E+04   1.000000E+04   1.000000E+04   1.000000E+04   1.000000E+04   1.000000E+04   1.000000E+04   1.000000E+04   1.000000E+04   1.000000E+04   1.000000E+04   1.000000E+04   1.000000E+04   1.000000E+04   1.000000E+04   3.230973E+03   8.312446E+03   4.232693E+03   9.837342E+01   5.467860E+01   5.668825E+02   5.021322E+03   1.000000E+04   4.197273E+02   2.378578E+03   3.791859E+02   4.130589E+02   1.219580E+03   4.953494E+02
   2.432724E+00   8.623450E+00   1.791831E+02   9.999607E+01   2.144423E+01   3.123687E+01   1.258632E+01   1.737144E+00   5.927675E-01   6.958548E+00   4.064014E+01   2.359846E+01   5.437695E+01   7.332643E+02   1.412985E+03   1.000000E+04   1.000000E+04   9.972305E+03   1.000000E+04   1.000000E+04   1.000000E+04   1.000000E+04   1.000000E+04   1.000000E+04   1.000000E+04   1.000000E+04   1.000000E+04   1.000000E+04   1.000000E+04   1.000000E+04   1.000000E+04   1.000000E+04   1.000000E+04   1.000000E+04   1.000000E+04   1.083919E+03   2.869610E+03   4.491269E+02   3.155651E+03   3.772563E+03   5.962015E+03   2.971316E+03   2.129372E+03   7.326859E+03   2.079753E+03   5.364758E+02   1.173562E+03   7.099980E+02   4.342127E+03   3.108149E+03
   3.750381E+01   6.666018E+01   3.972267E+02   4.233647E+02   4.357944E+01   4.940036E+00   4.999134E+00   2.899072E+00   2.850289E+00   1.562004E+00   8.789550E+00   1.369684E+01   3.392077E+01   1.015191E+03   1.000000E+04   3.017296E+03   1.000000E+04   5.419310E+03   1.000000E+04   1.000000E+04   1.000000E+04   1.000000E+04   1.000000E+04   1.000000E+04   1.000000E+04   1.000000E+04   1.000000E+04   1.000000E+04   1.000000E+04   1.000000E+04   1.000000E+04   1.000000E+04   1.000000E+04   1.000000E+04   1.000000E+04   7.826335E+03   1.992071E+03   2.724730E+03   6.820892E+03   6.163188E+03   2.336106E+03   4.559187E+02   6.917030E+02   3.872576E+02   1.180068E+03   7.163604E+03   3.451393E+03   1.000000E+04   1.000000E+04   1.000000E+04