# UPW package for  MODFLOW-NWT, generated by Flopy.
        55    -1E+30         0         0 
         1
         0
   1.000000E+00
         0
         0
INTERNAL               1  (50E15.6) -1 #hk layer 1                    
   3.144102E-02   1.452666E-01   1.875727E-01   1.180984E-02   1.068269E-02   1.675293E-01   1.566560E-01   1.477953E-01   8.091227E-01   5.477502E-01   2.730473E+00   2.881402E-01   2.082203E-01   5.437343E-01   1.890428E-01   3.582026E-01   3.821671E+00   3.664853E+00   1.261922E+00   6.840124E-01   1.056882E-01   2.725222E-02   8.836407E-01   8.409684E-02   8.988345E-03   2.251957E-02   1.999753E-01   4.000905E-02   3.295677E-02   1.499983E-02   5.758768E-03   2.328441E-02   7.462882E-02   2.471773E-02   5.270467E-02   5.470081E-01   5.432110E+00   2.947252E+01   2.500118E+01   5.732143E+01   2.615129E+01   3.399223E+01   3.461313E+02   1.269243E+02   6.221201E+01   5.838375E+02   6.625627E+00   1.036153E+01   5.838003E+00   8.945208E-01
   3.198740E-01   1.043468E-01   1.487201E-02   2.977113E-02   7.232076E-02   4.364152E-02   7.688507E-01   1.458479E+00   4.832170E+00   6.678760E-01   1.051016E+00   5.991421E-01   1.012912E+00   5.550639E-02   2.539361E-02   2.692336E-02   4.378733E-01   4.062864E-01   1.055803E-01   2.082393E-01   5.517438E-01   1.534277E-01   4.075882E-01   7.183699E-02   5.517073E-03   1.965271E-03   1.308802E-01   1.377468E-01   2.063083E-01   4.628975E-02   1.159548E-02   5.280262E-03   3.422461E-02   5.169613E-02   4.352491E-02   8.199032E-01   1.347868E+01   1.653181E+01   4.321292E+01   9.765601E+00   1.625927E+00   3.489347E+01   1.326208E+01   3.823096E+01   1.118064E+02   2.414662E+02   6.977885E+01   3.932296E+00   4.495583E+01   3.267877E+01
   2.993865E-02   1.037168E-02   1.134776E-02   1.452824E-02   3.859643E-02   2.134450E-01   1.514096E-01   9.497699E-01   1.494820E+00   4.147318E-01   1.558600E+00   3.844076E+00   2.296295E+00   2.018363E-01   2.227225E-01   8.972876E-02   9.154247E-01   1.972570E-01   5.473895E-02   7.666748E-02   4.978688E-01   3.321778E-01   2.253208E+00   4.116678E-02   8.120503E-03   5.085180E-02   7.190612E-02   6.519059E-01   1.454097E-01   4.706302E-01   4.239462E-02   9.820365E-03   1.077432E-02   1.468335E-01   9.196291E-02   3.383439E-01   9.687431E-01   1.284324E+00   1.359887E+01   8.796841E+01   1.629476E+01   7.881377E-01   1.628645E+00   9.529490E+00   1.623424E+03   1.214608E+03   3.269055E+01   3.395309E+01   6.595114E+01   5.283524E+01
   2.584917E+00   6.712578E-02   2.369823E-02   1.025742E-02   2.835195E-01   3.008866E-01   3.110133E-01   1.363672E+01   1.762591E+00   4.799593E-01   1.967639E+00   3.052323E+00   3.175467E-01   5.393336E+00   3.137227E+00   4.330570E-01   1.816894E-01   2.192608E-01   3.891167E-02   7.307681E-02   6.503041E-01   3.598489E-01   3.219377E-01   3.466973E-01   4.966388E-02   4.766507E-02   4.026765E-02   6.752545E-02   8.462203E-02   6.328155E-02   1.086376E-01   2.080079E-02   5.965600E-02   8.443385E-02   3.458601E-02   8.394009E-02   1.961839E-01   3.161889E-01   2.654111E+00   4.180685E+00   7.507568E+00   4.176839E+00   1.290475E+00   2.131588E+01   6.870277E+02   7.946476E+01   2.065745E+00   1.311307E+00   5.027901E+00   3.261915E-01
   1.497067E+00   4.740577E-01   6.377571E-01   1.354087E+00   1.136257E+00   1.604391E-01   1.509446E-01   3.889930E+00   1.192146E+01   4.843160E+00   1.536984E+00   1.445136E+00   2.182800E+00   1.102295E+00   2.929569E+01   6.413404E-01   4.528719E-01   1.668465E-01   1.371282E-01   1.973927E-02   7.323357E-01   1.525442E-01   8.431342E-01   5.887883E-01   1.749450E-01   3.823257E+00   1.816319E-01   1.108870E-01   1.057846E-01   4.906161E-02   4.205652E-02   7.117221E-02   7.848710E-03   7.849633E-03   1.074871E-02   2.905617E-02   1.546779E-01   7.467479E-01   4.115457E-01   8.134720E-01   2.614629E+00   4.548096E+00   1.104211E+00   1.371133E+01   2.746414E+02   8.341515E+02   6.098131E+00   9.739636E-01   1.213611E+00   2.870348E-02
   2.660571E+00   3.302640E+00   3.047595E+00   1.212644E+00   6.910346E-02   8.589065E-02   1.083691E-01   5.036655E-01   2.465680E+00   2.028661E-01   1.049053E+00   1.586476E+00   1.048138E+01   9.911876E-01   1.153613E+00   1.139870E+00   2.633858E+00   5.416415E+00   1.835218E-01   2.664864E-02   2.069667E-01   1.798825E-01   3.463099E-01   8.866581E-02   1.444645E+00   8.040486E+00   1.749269E+00   7.659980E-01   8.405397E-02   5.894565E-02   3.401243E-02   1.662383E-02   7.592174E-02   8.913378E-03   1.016754E-02   1.306774E-02   1.733003E-01   1.891315E+00   3.187114E+00   1.116479E+00   2.189746E+00   1.712566E+00   1.287428E+00   2.178542E+01   4.028875E+02   4.223333E+01   1.412719E+00   2.643884E-01   2.970703E-01   1.065004E-01
   2.554637E+00   6.101420E-01   3.167917E+00   5.763549E-01   4.791935E-01   7.936893E-02   7.338022E-02   4.316139E-02   4.040613E-02   1.919603E+00   4.102440E-01   5.592409E-01   1.787152E+00   4.646130E+00   7.994217E+00   3.266309E+00   1.587567E+01   2.660392E+00   9.961559E-01   2.390650E-01   1.302088E+00   8.979296E-01   4.274102E-01   5.658867E+00   5.815980E+00   1.455761E+01   1.273957E+00   7.012183E-01   1.431268E+00   3.396826E-01   1.302979E-02   3.973925E-02   1.075431E-01   6.014637E-02   5.741407E-03   1.522565E-02   1.847293E-01   3.900144E-01   7.992219E-01   1.719412E+00   1.779114E+00   1.680308E-01   5.982185E+00   8.207291E+00   2.539263E+01   3.380594E+01   8.919556E-01   2.021210E-01   5.343001E-01   5.831610E-01
   3.625769E+01   3.022312E+00   3.757751E-01   6.534477E-02   3.296427E-02   2.922082E-02   2.189312E-01   2.568553E-01   6.959127E-01   1.544945E-01   3.766643E-01   2.940138E-02   4.735766E-02   6.576937E-01   1.182931E+00   4.127293E+01   1.336439E+00   8.072783E+00   1.698309E+01   2.845300E+01   9.478850E+00   3.120375E+00   1.024238E+00   4.147681E+00   2.536832E+01   1.368631E+02   8.025850E+00   3.275743E+00   2.831672E-01   5.742900E-01   1.538067E-01   6.168274E-02   1.153789E-01   5.317869E-02   3.061739E-02   2.642217E-02   3.389374E-02   1.022847E-01   8.028963E-01   1.117409E+00   3.164253E-01   7.081801E-01   5.476079E+00   1.004786E+01   4.612881E+00   4.422076E+00   5.454365E+01   5.393973E+01   2.567931E+01   2.734347E+00
   2.776585E+01   1.245799E+00   9.655596E-02   1.793579E-02   8.751297E-03   4.678511E-03   8.202980E-03   3.758555E-02   1.747377E-01   4.275609E-02   3.830869E-02   1.321970E-02   1.549508E-02   3.180223E-01   1.286437E+00   6.360038E+00   1.954186E+00   2.288363E+00   8.496622E+00   1.162235E+01   1.062765E+01   5.713007E+00   2.109221E+01   8.881488E+00   4.830065E+01   2.497240E+02   2.492974E+02   3.964584E+00   3.515032E+00   1.429450E+00   1.234180E-01   2.103585E-01   1.032324E-01   1.138327E-01   4.787352E-02   5.330995E-02   1.160892E-01   3.322997E-02   9.210567E-01   4.857153E+00   4.544097E-01   1.693528E-01   1.155711E+00   3.391782E+00   1.401473E+00   5.734446E+00   2.478907E+01   7.300418E+00   1.398458E+01   1.897281E+00
   1.599207E+02   5.739710E+00   4.966840E+00   3.742062E-01   2.726735E-01   4.448622E-03   3.714733E-03   6.283061E-02   1.393075E-02   2.578662E-02   2.574338E-02   2.857892E-01   1.319354E-01   8.228219E-02   2.196148E-01   5.899783E-01   1.302157E-01   9.091917E+00   5.444393E+01   9.526203E+00   2.320585E+00   3.885100E+00   6.572758E+01   4.974132E+01   2.888329E+01   1.467676E+01   7.504538E+00   1.932596E+00   3.728748E+00   2.214860E-01   2.012787E-01   2.625344E-01   5.913103E-01   2.863120E-01   3.589529E-01   5.777441E-01   4.352991E-01   7.042279E-01   5.887899E-01   9.833938E-01   8.107141E-02   3.339348E-01   1.964734E-01   3.565969E-01   1.082963E-01   2.013713E-01   1.574461E+00   1.531294E+00   4.276137E-01   9.455667E-01
   1.512661E+02   1.040105E+02   2.279292E+01   3.179276E+00   2.083393E-01   1.217099E-01   1.448322E-01   1.832101E-02   2.487855E-02   4.528230E-02   2.464292E-01   1.356361E-01   1.161151E-01   3.480930E-02   2.719546E-01   6.955155E-01   6.929249E-01   1.261045E+00   1.338914E+01   7.395988E+01   4.119516E+00   1.957235E+00   3.499212E+01   4.548298E+01   3.200744E+01   7.580756E+01   1.265216E+00   5.078086E-01   1.697603E+00   5.161853E-01   5.592577E-02   2.261911E-02   1.148207E-01   4.661136E-01   5.707432E-01   9.578981E-02   4.510918E-01   1.553182E+00   1.375599E-01   3.777637E-01   1.626627E-01   1.408200E-01   9.268426E-02   6.567591E-02   1.122973E-01   3.433329E-02   8.406644E-03   6.960661E-02   2.428670E-01   1.079801E-01
   5.149012E+02   9.105183E+01   7.775083E+00   9.234555E-01   5.858683E-01   2.421544E-01   2.627452E-02   1.602368E-02   1.562162E-02   5.191478E-02   1.814370E-02   3.527398E-02   1.313442E-02   1.288653E-02   2.763557E-02   4.942507E-01   2.473645E-01   6.195094E-01   2.230163E+00   3.411826E+00   1.721558E+00   7.960151E+00   3.924574E+01   3.958297E+01   9.737416E+00   3.121749E+00   1.395347E-01   1.641809E+00   1.004280E+01   1.999174E+00   4.459617E-02   2.383387E-02   1.964314E-02   1.649270E-01   1.287989E-02   9.120461E-02   3.824215E-01   4.893730E-01   8.206216E-02   9.482105E-02   2.114696E-01   2.120999E-01   7.574927E-02   1.092331E-01   2.525145E-01   6.195775E-02   1.983304E-02   1.058691E-01   6.232821E-02   3.925562E-02
   1.519841E+02   1.087545E+02   3.837759E+01   2.739475E+00   1.516023E-01   5.052417E-01   5.281972E-02   3.079816E-03   5.080987E-03   3.377986E-02   4.245654E-02   9.003785E-02   1.817460E-02   9.009331E-03   5.284796E-02   7.968371E-02   8.222954E-01   2.849946E-01   2.086267E-01   6.925151E-01   2.009366E+00   4.124222E+00   2.901888E+02   1.360852E+02   6.782265E+00   2.474477E+01   5.975950E-01   3.772343E+00   4.588418E+00   2.162996E-01   8.099106E-02   3.451589E-02   4.208603E-02   8.325795E-02   5.172395E-02   1.064937E+00   2.436851E-01   1.652483E-01   1.678046E-01   3.248340E-02   1.292065E-01   5.816335E-02   1.527409E-01   3.890684E-01   5.327708E-01   6.055207E-01   3.476601E-02   3.277155E-02   8.978821E-02   1.386571E-02
   4.320760E+01   3.338482E+01   3.387330E-01   3.330162E-01   4.825827E-01   3.645255E-01   4.306849E-02   2.348917E-02   2.577107E-02   3.041610E-02   4.830044E-03   9.383739E-03   1.454370E-02   7.850035E-03   4.937298E-02   3.719135E-02   1.006665E-01   1.676597E+00   2.186398E-01   1.305532E+00   2.087189E+00   1.712148E+01   1.451466E+02   6.116286E+01   3.099575E+01   7.775498E+00   7.902585E-01   5.438358E+00   1.260267E+00   2.065697E+00   6.910048E-01   6.688202E-01   4.130661E-02   2.752627E-01   2.680163E-01   1.151764E+00   8.334979E-02   3.387812E-02   2.723477E-03   7.957819E-03   1.820812E-02   9.944536E-02   4.652606E-02   1.377981E-01   1.776769E+00   8.066332E-02   3.597796E-02   2.406191E-01   5.887726E-02   2.102287E-02
   2.072174E+00   3.543033E+00   1.807780E-01   1.043411E-01   2.804779E-01   3.634422E-02   1.700921E-01   3.736081E-02   1.246738E+00   6.211397E-01   4.773043E-03   2.149345E-02   5.910351E-02   9.824955E-03   1.709906E-02   4.270069E-02   1.473970E-02   7.644200E-01   1.147734E+00   1.780319E+00   1.444372E+00   5.064108E+01   8.224561E+01   1.368254E+02   1.964530E+02   4.807481E+01   3.007093E+00   9.417535E+00   5.850591E+00   3.942115E+00   3.935645E-01   4.502484E-01   1.269014E+00   3.654614E-01   3.342719E-01   2.263064E-01   1.087699E-01   2.053118E-02   3.611439E-03   8.170706E-03   9.563539E-03   1.188102E-02   1.740673E-01   1.843683E+00   8.371590E-01   5.746204E-01   4.043360E-02   1.933076E-02   5.242039E-02   3.777324E-02
   7.928569E-01   3.197751E+00   8.262178E-02   3.016364E-01   6.094810E-02   4.597273E-02   7.585654E-01   5.415403E-02   8.235809E-02   2.722834E-02   3.832885E-03   5.373135E-03   4.806768E-02   2.401248E-02   6.961702E-02   1.843123E-02   3.208078E-02   1.274898E-01   3.703875E-01   1.329718E+01   3.829302E+01   7.246906E+01   7.052908E+01   3.119432E+02   4.086583E+02   6.339213E+01   7.135690E+01   2.641108E+01   2.702755E+01   7.018799E+00   2.034605E+00   9.686497E+00   8.659956E+00   3.975157E+00   6.817698E-02   9.272596E-02   1.336781E-01   6.038880E-02   6.534498E-02   1.898426E-03   3.365624E-03   1.179776E-02   1.115717E-01   7.810881E-01   5.006938E+00   6.830930E-01   4.209867E-02   1.991517E-01   1.671221E-02   6.987602E-02
   7.550567E-02   1.731394E+00   1.769686E-01   1.906035E-01   3.503803E-01   4.647918E-02   4.908563E-01   5.956200E-01   1.341840E-01   3.077330E-02   1.759573E-02   4.495129E-03   2.890939E-02   1.834821E-01   6.435829E-02   3.751002E-02   3.679671E-01   9.502138E-01   4.207218E-01   9.837137E-01   1.788493E+00   5.189067E+01   5.009503E+02   1.382047E+03   1.414715E+03   1.091779E+02   1.799107E+02   4.627407E+01   2.615494E+01   2.888915E+00   3.932534E+00   2.165523E+01   3.354046E+00   7.588020E-01   8.106615E-02   1.575801E-01   4.037612E-01   3.403528E-01   1.917710E-01   2.585298E-02   1.596089E-01   3.682212E-02   5.469934E-02   2.567931E-01   4.880529E-02   4.150488E-02   2.034640E-01   5.296050E-01   1.087876E-01   5.014597E-02
   2.801173E-02   7.791765E-02   2.273180E-01   3.132613E-01   1.830805E-01   2.553199E-01   8.667800E-01   2.972053E+00   8.994716E-01   1.048827E+00   5.940804E-02   1.435146E-02   4.395507E-02   1.901858E-02   1.577334E-01   2.103867E+00   1.196336E+00   2.317563E+00   1.438122E+00   1.409994E+00   3.452003E+00   1.569858E+02   1.942394E+02   7.036298E+02   1.712278E+02   2.253379E+02   1.366317E+02   1.310261E+01   2.401265E+01   1.273791E+00   1.983449E+00   1.180156E+01   5.200110E+00   2.828528E-02   4.409055E-02   1.668869E-01   4.689555E-01   8.730029E-01   6.827414E-01   3.014515E-01   2.242096E-01   7.889650E-03   2.838807E-02   1.497416E-01   1.566577E-01   2.957131E-01   1.823741E-01   7.546539E-01   7.784027E-02   1.037811E-01
   4.009809E-02   3.813555E-02   2.777079E-02   6.194514E-02   1.454866E-02   1.100014E-01   4.556724E-01   4.491666E-01   2.541781E+00   2.262763E-01   1.315474E-01   4.077553E-02   1.506237E-02   5.641128E-02   3.839272E-01   6.264163E-01   4.716668E-01   9.568401E+00   1.014886E+00   5.755919E+00   1.964914E+01   1.174202E+01   2.643097E+01   1.869816E+02   9.554544E+02   1.465552E+03   3.042392E+02   8.471973E+01   1.489278E+01   8.078205E-01   5.467831E+00   2.064174E+01   2.296650E+00   1.741405E-01   3.360626E-01   1.199015E+00   2.910674E+00   1.638050E+00   7.913046E-01   9.631811E-02   1.366549E-01   5.930926E-03   1.444315E-01   4.304521E-01   1.146789E+00   6.468634E-01   1.217948E-01   3.469842E-02   5.942830E-02   1.040490E-02
   1.833391E-01   1.669901E-02   2.870947E-02   1.217462E-02   5.432133E-02   5.129461E-02   7.786774E-02   5.478819E-02   6.612860E-02   3.815721E-02   1.139114E-01   1.339713E-02   2.093579E-02   3.597439E-02   4.126807E-01   1.664953E+00   1.479092E+00   2.390075E+00   2.097091E+01   1.404368E+01   1.335529E+01   5.994303E+00   1.066956E+02   1.630902E+02   4.847165E+02   2.195815E+02   4.267930E+02   3.419557E+01   3.804562E+00   3.880147E+00   1.766519E+00   9.602511E-01   2.264995E+00   9.578522E-01   7.196535E+00   4.327024E+01   1.329887E+00   1.642133E+00   2.020491E-02   2.973402E-02   2.149552E-02   5.282480E-03   2.437524E-02   2.253843E-01   3.164975E-01   6.552252E-01   7.769845E-02   9.326746E-03   2.844977E-02   5.218700E-02
   3.525572E-01   1.087722E+00   1.391950E-01   7.915874E-03   5.368091E-03   2.396702E-02   5.321071E-03   1.164852E-01   1.550756E-02   1.790186E-01   1.207593E-01   1.104029E-01   1.300838E+00   1.370990E+00   8.300312E-01   4.864458E+00   8.015781E+00   2.773836E+00   8.923939E+00   9.569635E+01   5.958928E+01   2.245014E+00   6.908831E+00   2.044136E+01   5.050023E+00   7.199273E+01   1.187152E+02   2.295704E+01   3.526410E+00   1.399333E+01   1.115669E+00   4.046558E-01   1.762808E+00   2.309009E+00   3.769615E+00   1.692776E+02   1.826906E+01   9.401128E-01   4.517205E-02   3.206097E-02   4.448294E-03   1.806385E-03   1.990768E-02   1.908058E-01   1.681489E-01   5.281041E-01   1.218663E-01   5.901423E-02   2.881462E-02   1.022508E-01
   3.825351E+00   2.780071E-01   2.404784E-01   5.559815E-03   2.792296E-03   3.584814E-04   1.276423E-02   1.311534E-02   2.962218E-02   1.825987E-01   5.541756E-01   1.214952E+00   2.200006E+00   6.146465E+00   1.894267E-01   1.168344E+01   3.539203E+00   8.809713E+00   1.905919E+01   3.320849E+02   6.023970E+02   6.550899E+00   2.756495E+01   3.832523E+00   3.980988E+00   2.230978E+00   1.313769E+01   2.351582E+00   5.877064E-01   6.755483E-01   1.687405E-01   4.658585E-01   5.740206E-01   1.119255E+00   1.385338E+01   7.421588E+01   1.699886E+01   2.046281E+01   1.887964E-01   1.472309E-01   3.140787E-02   7.379274E-03   8.256039E-03   2.027824E-02   2.193885E-01   1.478591E-01   9.218110E-02   2.494372E-01   8.335630E-02   4.910572E-01
   2.880056E+01   3.707417E+00   1.602718E+00   1.825341E-02   2.813342E-03   1.294338E-03   2.453327E-03   4.997760E-02   3.204352E-01   1.080360E+00   1.185204E+01   5.458623E+00   7.620793E+00   8.354239E-01   1.665372E+00   3.193044E+00   2.427512E+01   4.189703E+00   1.329347E+01   9.069212E+01   2.789080E+02   2.819218E+02   1.168668E+02   8.984378E+00   7.511821E+00   5.648000E+00   1.312323E+01   4.388546E-01   4.099259E-01   4.137120E-01   1.013767E-01   8.275615E-01   5.020742E-02   1.857385E-01   5.267069E-01   3.412307E+00   4.700674E+01   3.932978E+00   3.525750E-01   3.588247E-02   6.986329E-03   1.384640E-02   5.103829E-02   2.130971E-02   6.466389E-02   6.082658E-02   5.174257E-01   1.053444E+00   4.433342E-01   3.645663E+00
   7.075723E-01   2.080719E+01   1.470493E+00   3.225831E-02   1.513547E-03   1.774412E-04   4.603261E-04   2.564228E-02   1.079363E-01   8.342380E-01   3.113366E+01   4.290476E+00   7.299812E+00   1.285671E+00   4.344597E+00   4.002996E+01   6.659548E+00   1.587575E+01   1.404125E+02   2.373822E+01   6.257838E+02   5.888183E+02   3.570262E+02   1.132854E+02   8.476676E+01   6.502819E+01   1.757991E+01   2.759665E+01   4.560321E+00   1.037678E+00   5.093807E+00   2.258178E+00   3.387104E-02   5.013629E-01   1.693087E+00   1.905964E+00   1.173389E+00   9.166179E-01   3.333197E-02   8.089894E-03   1.693001E-02   5.839102E-03   3.105444E-02   8.139331E-03   8.044250E-03   1.552211E-02   9.693165E-02   1.043208E+00   1.121915E+00   1.496513E+00
   2.356498E-01   4.386817E-01   2.358101E-01   1.174968E-01   2.013836E-03   1.599912E-04   4.072582E-05   8.766790E-04   2.734590E-02   1.961573E-01   7.641097E-01   5.187667E+00   1.855780E+01   1.677914E+00   7.289817E+01   4.476598E+01   7.799678E+01   2.975792E+01   5.362339E+02   2.786520E+03   2.155280E+03   1.996427E+03   2.981874E+02   9.143909E+01   1.712958E+02   4.211660E+01   1.174104E+02   1.349258E+01   6.450304E+00   5.713278E+00   3.424922E+01   1.905450E+00   1.125765E+00   6.479832E-01   9.983625E-02   2.654757E-01   5.082273E-01   7.275402E-02   1.088296E-02   1.313799E-02   2.148158E-02   1.976259E-02   3.263261E-02   6.485329E-02   3.775891E-03   1.898963E-01   5.202883E-02   3.503224E-01   2.052402E-01   6.866605E-01
   3.578031E-02   2.618184E-02   7.357467E-03   1.614624E-02   9.964006E-04   3.059412E-04   2.828350E-05   9.725629E-04   6.155543E-03   1.892138E-01   1.357884E+00   9.087398E-01   2.140652E+00   6.399559E+00   7.287963E+00   2.061203E+01   3.411978E+01   4.077710E+02   8.148931E+02   2.621258E+02   4.062944E+02   7.642786E+01   7.888331E+01   3.483837E+01   9.094250E+01   1.793967E+02   5.928346E+01   7.540323E+00   1.174493E+00   2.575692E+00   3.065589E+00   6.025014E+00   4.743376E+00   1.681917E+01   2.109550E-01   6.641761E-02   3.934871E-01   1.756263E+00   8.824640E-02   2.146302E-02   1.198573E-01   7.047372E-02   6.869943E-02   2.613930E-01   8.125708E-02   4.262638E-02   9.938776E-02   3.938520E-02   1.257327E-01   1.000530E+00
   2.728707E-02   1.733076E-02   1.021176E-02   2.053007E-02   3.262475E-03   1.517440E-04   5.371522E-04   1.498167E-04   9.497657E-03   1.659839E-01   1.672018E-01   1.359969E+00   1.041384E+01   1.792969E+01   7.704993E+01   1.116487E+01   7.410812E+01   4.757723E+02   5.142011E+02   4.174492E+02   1.648248E+03   1.406059E+02   3.598670E+01   1.088648E+01   1.098847E+02   6.189009E+01   9.122620E+01   3.118319E+01   4.932047E+00   1.776245E+01   5.371967E+00   9.494343E-01   9.803964E-01   8.800919E-01   8.776400E-02   1.673840E-01   1.838955E-01   2.897486E-01   8.532222E-01   1.569987E-01   3.588400E-02   1.641923E-02   4.576264E-02   2.609074E-01   6.753460E-02   7.522222E-02   1.987999E-02   1.172560E-02   2.130575E-01   2.361537E+00
   2.893606E-01   4.154523E-01   3.343868E-02   9.350664E-03   3.246730E-03   1.927921E-03   7.431166E-03   3.719378E-04   1.350894E-02   9.443741E-02   7.291252E-02   1.403785E-01   2.515618E+00   1.181193E+01   4.741945E+01   7.761069E+00   1.298998E+01   1.298589E+02   3.904044E+02   4.766303E+02   1.762515E+02   3.095762E+02   4.902836E+01   1.471642E+02   4.179059E+02   2.359179E+02   2.296392E+01   2.672339E+02   1.189834E+01   1.330922E+01   9.561397E+00   3.311501E+00   2.987562E+00   7.044962E+00   3.591775E-01   1.477980E+00   5.394849E-02   2.298131E-02   5.355841E-01   7.431076E-01   5.228497E-02   1.027665E-01   4.454637E-02   4.396033E-01   1.071043E-02   1.863876E-02   1.138214E-02   8.723594E-02   4.447095E-02   9.426726E-02
   3.256090E+00   1.092496E+00   1.854890E-02   1.724901E-02   3.951611E-04   4.492018E-04   9.769942E-04   5.753290E-02   7.803707E-02   1.559058E-01   1.935275E-01   2.868422E-02   4.165523E-01   4.828365E-01   7.455028E-01   2.219402E+00   1.150278E+01   2.801504E+01   1.898860E+02   2.458179E+03   1.931343E+03   7.066481E+02   2.409174E+02   3.386514E+02   2.178197E+02   6.091956E+02   7.242195E+01   3.774623E+02   3.728884E+02   5.252883E+02   4.115585E+01   9.738570E+00   1.470961E+01   6.604827E+00   1.248129E+00   5.591388E-01   3.178293E-01   6.891706E-01   3.740140E-01   1.110602E-01   8.612644E-02   2.146322E-01   4.817418E-03   1.283220E-02   1.324180E-02   9.132601E-03   4.266104E-02   5.680456E-02   1.981532E-02   1.104063E-02
   1.944453E-01   1.828095E-02   1.215653E-02   4.908249E-03   1.109448E-03   2.011401E-03   7.564091E-03   8.025371E-02   9.825511E-02   2.099193E-03   5.142210E-03   3.426949E-02   2.998174E-01   2.002016E-01   9.977392E-01   1.414458E+01   5.068760E+01   9.296106E+01   2.062677E+02   1.000000E+04   3.031949E+02   2.089181E+03   2.098989E+02   2.824181E+02   2.152916E+02   1.671304E+02   1.663728E+03   1.409354E+03   3.124295E+03   3.253958E+03   8.470703E+02   2.669871E+02   4.926297E+01   1.570240E+01   4.318630E+00   8.182792E+00   2.135937E+00   3.467033E+00   6.953419E+00   4.443063E-01   1.974918E+00   1.254237E-01   1.075170E-02   2.295123E-02   1.508355E-02   2.701540E-02   1.659304E-02   1.131262E-01   1.533358E-01   7.537773E-02
   2.578806E-02   2.232679E-03   1.140090E-02   5.897158E-03   1.173016E-02   7.894050E-04   6.633609E-04   2.994879E-02   4.470585E-02   2.954873E-04   1.039971E-03   2.213849E-02   3.892173E-01   1.188331E+00   1.526815E+00   1.814740E+01   3.256074E+01   6.746635E+01   1.635308E+01   1.639449E+02   1.092155E+02   4.314432E+02   2.713687E+02   6.340683E+02   3.404290E+02   2.160846E+02   1.065438E+03   3.814094E+03   9.402407E+02   7.174932E+02   4.231669E+02   5.322903E+02   7.093997E+01   1.500914E+01   8.947662E+01   1.152447E+01   3.544107E+01   1.637923E+01   4.852181E+01   5.424759E+00   4.188876E-01   1.581958E-01   3.962465E-02   6.516754E-03   3.605374E-02   6.575097E-02   1.742448E-01   7.250058E-01   1.182142E-01   1.612444E-02
   4.769438E-03   2.766148E-02   3.525077E-03   3.704372E-02   2.985423E-02   7.075944E-02   1.334669E-02   6.292376E-03   6.657329E-03   2.519941E-03   5.435242E-03   3.095277E-02   2.046418E-01   1.424858E+00   3.877699E+00   1.094268E+00   3.805793E-01   2.597271E+00   3.958018E+01   7.678868E+01   2.061913E+02   8.441596E+02   2.770449E+02   5.314793E+02   9.806001E+01   9.447282E+02   4.052167E+02   1.000000E+04   4.562917E+03   1.676373E+03   1.019662E+03   1.904245E+02   2.900867E+02   3.374695E+02   2.430079E+01   3.348181E+00   3.395216E+01   1.121284E+01   4.729416E+01   2.756123E+01   6.446395E+00   5.430653E-01   1.081509E-01   1.478600E-01   5.698242E-02   9.112506E-02   3.823847E-02   7.807040E-02   5.610716E-02   5.233996E-03
   2.577703E-02   3.067642E-02   5.083660E-02   4.469074E-02   1.803008E+00   9.811918E-01   1.709709E-01   2.758077E-03   1.656752E-03   1.733072E-03   1.566870E-02   4.918929E-02   3.459261E-02   1.565811E-01   2.605556E+00   6.671703E-01   2.245729E+00   1.867703E+01   6.051675E+01   1.187083E+02   6.876570E+02   1.535377E+03   2.441219E+02   1.062772E+02   4.032539E+02   1.925436E+02   1.387062E+03   1.000000E+04   1.000000E+04   1.000000E+04   4.811819E+03   4.042543E+02   4.778886E+01   2.305711E+01   4.475680E+01   1.463989E+01   4.519320E+01   2.456219E+02   8.065195E+01   8.480640E+01   2.589479E+02   8.973017E+00   4.238767E-01   1.032403E-01   6.414197E-01   2.071250E+00   2.842787E+00   3.365931E+00   4.060263E-01   1.456528E+00
   1.274860E-01   4.914897E-01   3.237831E-01   5.290800E-01   1.962053E+00   3.499212E+00   4.539648E-01   1.197987E-01   4.764371E-03   4.966580E-03   1.067737E-02   5.332196E-02   1.650359E-02   4.555065E-01   3.589244E+00   2.465172E+00   4.529284E+00   1.019730E+01   2.444540E+00   7.763148E+01   5.042277E+02   3.152660E+02   2.166851E+02   3.818687E+02   2.856830E+02   9.453593E+02   5.828373E+03   2.527153E+03   8.106930E+02   2.934127E+03   1.000000E+04   3.292710E+02   4.489659E+01   3.232300E+01   1.127538E+01   1.153243E+02   1.021119E+02   2.423191E+02   1.108328E+02   5.735733E+01   7.874019E+01   5.412775E+00   2.719569E-01   8.269009E-01   1.090464E+00   5.674254E+01   7.773646E+01   6.257656E+00   9.210385E-01   3.114012E-01
   1.848005E+00   3.288828E-01   1.306608E-01   1.839701E+00   9.770417E-01   1.565359E-01   7.992589E-02   7.138025E-02   2.550145E-02   3.255602E-03   2.381857E-02   1.228054E-02   2.322889E-02   1.031927E-02   6.664895E-03   3.184074E-01   9.505576E-01   4.911333E+00   3.705604E+00   2.444043E+01   1.326712E+02   5.033688E+01   3.446202E+02   9.220544E+02   1.308283E+03   9.514647E+03   5.708787E+03   4.281671E+02   7.077114E+02   3.071525E+02   1.591879E+03   7.125283E+02   8.142626E+01   4.221684E+01   3.831399E+01   7.883199E+01   1.345003E+02   3.250431E+02   6.964128E+01   8.951593E-01   4.621417E+00   5.672953E+00   1.286394E+00   1.641281E+00   3.419788E+00   8.528133E+01   2.347568E+02   3.032948E+01   8.536319E+00   1.830709E+00
   9.728902E-02   3.811191E-02   6.510417E-02   1.882471E-01   1.595032E-02   2.011690E-02   1.772866E-02   9.602061E-03   5.149529E-03   2.268789E-03   3.537586E-03   5.301691E-03   7.385001E-03   3.133692E-02   3.671707E-02   4.968390E-02   2.207435E-01   7.943612E-01   8.752190E+00   6.392947E+00   9.680305E+01   3.261952E+02   9.275172E+02   6.795317E+02   5.356372E+02   6.581101E+02   2.117435E+02   6.491923E+01   8.635286E+02   2.555404E+02   1.219047E+03   4.233963E+02   5.031143E+02   1.643157E+02   9.944465E+01   2.004569E+01   5.494802E+00   2.829588E+00   1.825301E+00   1.557692E+00   8.130667E+00   3.928022E-01   3.030026E+00   1.550541E+01   3.422258E+01   4.514338E+01   2.291268E+01   8.030923E+00   1.559476E+01   4.463069E+01
   1.998981E-01   2.521206E-02   1.355698E-01   3.701147E-02   1.198002E-01   8.390090E-02   2.550897E-03   6.129749E-04   8.641121E-04   1.435381E-03   2.207244E-03   3.524514E-04   3.380179E-03   2.386073E-02   1.454431E-01   6.171269E-01   3.070894E+00   1.120346E+00   4.221385E-01   4.642254E+00   2.198504E+03   3.020609E+03   4.002122E+02   7.451646E+01   1.611824E+02   5.876286E+01   1.895750E+03   8.266804E+02   2.827085E+03   3.349986E+02   8.577280E+02   7.077736E+02   7.414931E+01   1.419000E+01   7.035743E+00   1.072386E+01   2.297860E+00   1.410704E-01   4.622933E-01   2.010221E-01   6.234883E-01   2.575132E+00   3.199830E+01   8.410473E+01   7.204221E+01   3.383899E+02   1.247995E+01   6.283625E+01   1.955702E+02   1.192780E+01
   1.364710E-01   4.809563E-02   1.432515E-01   3.894187E-01   2.407339E-02   1.483498E-02   6.337202E-04   7.883670E-05   1.079899E-04   7.638945E-04   9.481075E-04   1.150017E-03   4.312052E-04   2.129698E-02   2.185765E-01   2.205381E+00   7.401397E+00   1.070214E+01   6.396127E-01   9.560506E+00   5.562833E+02   1.150195E+03   6.799316E+01   9.267311E+01   3.110427E+01   1.750729E+02   8.738033E+02   8.937137E+02   5.904566E+03   8.135704E+01   6.002910E+02   4.316703E+01   6.854712E+00   3.729763E+01   3.511933E+01   8.380994E+00   2.726029E-01   7.973830E-01   2.442751E+00   3.656940E+00   1.496769E+01   5.362031E+00   3.608040E+00   2.741396E+01   4.673518E+01   1.067033E+02   4.959420E+02   8.383354E+01   1.134660E+03   2.320118E+01
   3.900908E-01   3.032651E-01   4.979351E-01   5.625240E-01   2.310276E-01   4.514959E-02   3.664570E-03   9.125272E-03   3.173448E-03   3.784043E-04   3.058048E-04   9.171868E-04   6.197636E-04   2.608671E-02   3.825418E-01   1.341853E+00   1.563097E+01   4.045956E+00   1.658599E+00   2.075083E+00   5.384778E+01   1.391857E+02   3.926723E+01   2.657253E+01   7.744876E+00   1.837482E+01   1.919021E+02   6.842870E+01   9.534445E+01   4.608945E+01   9.369283E+01   1.644610E+02   3.406956E+01   4.300394E+02   2.572494E+01   1.348996E+01   2.691121E+00   7.637568E+00   2.084151E+01   3.344181E+00   7.136421E+01   4.106277E+01   3.030732E+01   5.980557E+00   8.402108E+00   3.882747E+02   5.692016E+02   2.102911E+02   5.456153E+01   1.406485E+01