# BAS6 package for  MODFLOW-NWT, generated by Flopy.
FREE
INTERNAL               1     (FREE) -1 #ibound_layer_0                
         1         1         1         1         1         1         1         1         1         1         1         1         1         1         1         1         1         1         1         1         1         1         1         1         1         1         1         1         1         1         1         1         1         1         1         1         1         1         1         1         1         1         1         1         1         1         1         1         1         1
         1         1         1         1         1         1         1         1         1         1         1         1         1         1         1         1         1         1         1         1         1         1         1         1         1         1         1         1         1         1         1         1         1         1         1         1         1         1         1         1         1         1         1         1         1         1         1         1         1         1
         1         1         1         1         1         1         1         1         1         1         1         1         1         1         1         1         1         1         1         1         1         1         1         1         1         1         1         1         1         1         1         1         1         1         1         1         1         1         1         1         1         1         1         1         1         1         1         1         1         1
         1         1         1         1         1         1         1         1         1         1         1         1         1         1         1         1         1         1         1         1         1         1         1         1         1         1         1         1         1         1         1         1         1         1         1         1         1         1         1         1         1         1         1         1         1         1         1         1         1         1
         1         1         1         1         1         1         1         1         1         1         1         1         1         1         1         1         1         1         1         1         1         1         1         1         1         1         1         1         1         1         1         1         1         1         1         1         1         1         1         1         1         1         1         1         1         1         1         1         1         1
         1         1         1         1         1         1         1         1         1         1         1         1         1         1         1         1         1         1         1         1         1         1         1         1         1         1         1         1         1         1         1         1         1         1         1         1         1         1         1         1         1         1         1         1         1         1         1         1         1         1
         1         1         1         1         1         1         1         1         1         1         1         1         1         1         1         1         1         1         1         1         1         1         1         1         1         1         1         1         1         1         1         1         1         1         1         1         1         1         1         1         1         1         1         1         1         1         1         1         1         1
         1         1         1         1         1         1         1         1         1         1         1         1         1         1         1         1         1         1         1         1         1         1         1         1         1         1         1         1         1         1         1         1         1         1         1         1         1         1         1         1         1         1         1         1         1         1         1         1         1         1
         1         1         1         1         1         1         1         1         1         1         1         1         1         1         1         1         1         1         1         1         1         1         1         1         1         1         1         1         1         1         1         1         1         1         1         1         1         1         1         1         1         1         1         1         1         1         1         1         1         1
         1         1         1         1         1         1         1         1         1         1         1         1         1         1         1         1         1         1         1         1         1         1         1         1         1         1         1         1         1         1         1         1         1         1         1         1         1         1         1         1         1         1         1         1         1         1         1         1         1         1
         1         1         1         1         1         1         1         1         1         1         1         1         1         1         1         1         1         1         1         1         1         1         1         1         1         1         1         1         1         1         1         1         1         1         1         1         1         1         1         1         1         1         1         1         1         1         1         1         1         1
         1         1         1         1         1         1         1         1         1         1         1         1         1         1         1         1         1         1         1         1         1         1         1         1         1         1         1         1         1         1         1         1         1         1         1         1         1         1         1         1         1         1         1         1         1         1         1         1         1         1
         1         1         1         1         1         1         1         1         1         1         1         1         1         1         1         1         1         1         1         1         1         1         1         1         1         1         1         1         1         1         1         1         1         1         1         1         1         1         1         1         1         1         1         1         1         1         1         1         1         1
         1         1         1         1         1         1         1         1         1         1         1         1         1         1         1         1         1         1         1         1         1         1         1         1         1         1         1         1         1         1         1         1         1         1         1         1         1         1         1         1         1         1         1         1         1         1         1         1         1         1
         1         1         1         1         1         1         1         1         1         1         1         1         1         1         1         1         1         1         1         1         1         1         1         1         1         1         1         1         1         1         1         1         1         1         1         1         1         1         1         1         1         1         1         1         1         1         1         1         1         1
         1         1         1         1         1         1         1         1         1         1         1         1         1         1         1         1         1         1         1         1         1         1         1         1         1         1         1         1         1         1         1         1         1         1         1         1         1         1         1         1         1         1         1         1         1         1         1         1         1         1
         1         1         1         1         1         1         1         1         1         1         1         1         1         1         1         1         1         1         1         1         1         1         1         1         1         1         1         1         1         1         1         1         1         1         1         1         1         1         1         1         1         1         1         1         1         1         1         1         1         1
         1         1         1         1         1         1         1         1         1         1         1         1         1         1         1         1         1         1         1         1         1         1         1         1         1         1         1         1         1         1         1         1         1         1         1         1         1         1         1         1         1         1         1         1         1         1         1         1         1         1
         1         1         1         1         1         1         1         1         1         1         1         1         1         1         1         1         1         1         1         1         1         1         1         1         1         1         1         1         1         1         1         1         1         1         1         1         1         1         1         1         1         1         1         1         1         1         1         1         1         1
         1         1         1         1         1         1         1         1         1         1         1         1         1         1         1         1         1         1         1         1         1         1         1         1         1         1         1         1         1         1         1         1         1         1         1         1         1         1         1         1         1         1         1         1         1         1         1         1         1         1
         1         1         1         1         1         1         1         1         1         1         1         1         1         1         1         1         1         1         1         1         1         1         1         1         1         1         1         1         1         1         1         1         1         1         1         1         1         1         1         1         1         1         1         1         1         1         1         1         1         1
         1         1         1         1         1         1         1         1         1         1         1         1         1         1         1         1         1         1         1         1         1         1         1         1         1         1         1         1         1         1         1         1         1         1         1         1         1         1         1         1         1         1         1         1         1         1         1         1         1         1
         1         1         1         1         1         1         1         1         1         1         1         1         1         1         1         1         1         1         1         1         1         1         1         1         1         1         1         1         1         1         1         1         1         1         1         1         1         1         1         1         1         1         1         1         1         1         1         1         1         1
         1         1         1         1         1         1         1         1         1         1         1         1         1         1         1         1         1         1         1         1         1         1         1         1         1         1         1         1         1         1         1         1         1         1         1         1         1         1         1         1         1         1         1         1         1         1         1         1         1         1
         1         1         1         1         1         1         1         1         1         1         1         1         1         1         1         1         1         1         1         1         1         1         1         1         1         1         1         1         1         1         1         1         1         1         1         1         1         1         1         1         1         1         1         1         1         1         1         1         1         1
         1         1         1         1         1         1         1         1         1         1         1         1         1         1         1         1         1         1         1         1         1         1         1         1         1         1         1         1         1         1         1         1         1         1         1         1         1         1         1         1         1         1         1         1         1         1         1         1         1         1
         1         1         1         1         1         1         1         1         1         1         1         1         1         1         1         1         1         1         1         1         1         1         1         1         1         1         1         1         1         1         1         1         1         1         1         1         1         1         1         1         1         1         1         1         1         1         1         1         1         1
         1         1         1         1         1         1         1         1         1         1         1         1         1         1         1         1         1         1         1         1         1         1         1         1         1         1         1         1         1         1         1         1         1         1         1         1         1         1         1         1         1         1         1         1         1         1         1         1         1         1
         1         1         1         1         1         1         1         1         1         1         1         1         1         1         1         1         1         1         1         1         1         1         1         1         1         1         1         1         1         1         1         1         1         1         1         1         1         1         1         1         1         1         1         1         1         1         1         1         1         1
         1         1         1         1         1         1         1         1         1         1         1         1         1         1         1         1         1         1         1         1         1         1         1         1         1         1         1         1         1         1         1         1         1         1         1         1         1         1         1         1         1         1         1         1         1         1         1         1         1         1
         1         1         1         1         1         1         1         1         1         1         1         1         1         1         1         1         1         1         1         1         1         1         1         1         1         1         1         1         1         1         1         1         1         1         1         1         1         1         1         1         1         1         1         1         1         1         1         1         1         1
         1         1         1         1         1         1         1         1         1         1         1         1         1         1         1         1         1         1         1         1         1         1         1         1         1         1         1         1         1         1         1         1         1         1         1         1         1         1         1         1         1         1         1         1         1         1         1         1         1         1
         1         1         1         1         1         1         1         1         1         1         1         1         1         1         1         1         1         1         1         1         1         1         1         1         1         1         1         1         1         1         1         1         1         1         1         1         1         1         1         1         1         1         1         1         1         1         1         1         1         1
         1         1         1         1         1         1         1         1         1         1         1         1         1         1         1         1         1         1         1         1         1         1         1         1         1         1         1         1         1         1         1         1         1         1         1         1         1         1         1         1         1         1         1         1         1         1         1         1         1         1
         1         1         1         1         1         1         1         1         1         1         1         1         1         1         1         1         1         1         1         1         1         1         1         1         1         1         1         1         1         1         1         1         1         1         1         1         1         1         1         1         1         1         1         1         1         1         1         1         1         1
         1         1         1         1         1         1         1         1         1         1         1         1         1         1         1         1         1         1         1         1         1         1         1         1         1         1         1         1         1         1         1         1         1         1         1         1         1         1         1         1         1         1         1         1         1         1         1         1         1         1
         1         1         1         1         1         1         1         1         1         1         1         1         1         1         1         1         1         1         1         1         1         1         1         1         1         1         1         1         1         1         1         1         1         1         1         1         1         1         1         1         1         1         1         1         1         1         1         1         1         1
         1         1         1         1         1         1         1         1         1         1         1         1         1         1         1         1         1         1         1         1         1         1         1         1         1         1         1         1         1         1         1         1         1         1         1         1         1         1         1         1         1         1         1         1         1         1         1         1         1         1
         1         1         1         1         1         1         1         1         1         1         1         1         1         1         1         1         1         1         1         1         1         1         1         1         1         1         1         1         1         1         1         1         1         1         1         1         1         1         1         1         1         1         1         1         1         1         1         1         1         1
         1         1         1         1         1         1         1         1         1         1         1         1         1         1         1         1         1         1         1         1         1         1         1         1         1         1         1         1         1         1         1         1         1         1         1         1         1         1         1         1         1         1         1         1         1         1         1         1         1         1
         1         1         1         1         1         1         1         1         1         1         1         1         1         1         1         1         1         1         1         1         1         1         1         1         1         1         1         1         1         1         1         1         1         1         1         1         1         1         1         1         1         1         1         1         1         1         1         1         1         1
         1         1         1         1         1         1         1         1         1         1         1         1         1         1         1         1         1         1         1         1         1         1         1         1         1         1         1         1         1         1         1         1         1         1         1         1         1         1         1         1         1         1         1         1         1         1         1         1         1         1
         1         1         1         1         1         1         1         1         1         1         1         1         1         1         1         1         1         1         1         1         1         1         1         1         1         1         1         1         1         1         1         1         1         1         1         1         1         1         1         1         1         1         1         1         1         1         1         1         1         1
         1         1         1         1         1         1         1         1         1         1         1         1         1         1         1         1         1         1         1         1         1         1         1         1         1         1         1         1         1         1         1         1         1         1         1         1         1         1         1         1         1         1         1         1         1         1         1         1         1         1
         1         1         1         1         1         1         1         1         1         1         1         1         1         1         1         1         1         1         1         1         1         1         1         1         1         1         1         1         1         1         1         1         1         1         1         1         1         1         1         1         1         1         1         1         1         1         1         1         1         1
         1         1         1         1         1         1         1         1         1         1         1         1         1         1         1         1         1         1         1         1         1         1         1         1         1         1         1         1         1         1         1         1         1         1         1         1         1         1         1         1         1         1         1         1         1         1         1         1         1         1
         1         1         1         1         1         1         1         1         1         1         1         1         1         1         1         1         1         1         1         1         1         1         1         1         1         1         1         1         1         1         1         1         1         1         1         1         1         1         1         1         1         1         1         1         1         1         1         1         1         1
         1         1         1         1         1         1         1         1         1         1         1         1         1         1         1         1         1         1         1         1         1         1         1         1         1         1         1         1         1         1         1         1         1         1         1         1         1         1         1         1         1         1         1         1         1         1         1         1         1         1
         1         1         1         1         1         1         1         1         1         1         1         1         1         1         1         1         1         1         1         1         1         1         1         1         1         1         1         1         1         1         1         1         1         1         1         1         1         1         1         1         1         1         1         1         1         1         1         1         1         1
         1         1         1         1         1         1         1         1         1         1         1         1         1         1         1         1         1         1         1         1         1         1         1         1         1         1         1         1         1         1         1         1         1         1         1         1         1         1         1         1         1         1         1         1         1         1         1         1         1         1
   -999.99
INTERNAL               1  (50E15.6) -1 #strt layer 1                  
   4.499791E+01   4.499791E+01   4.499779E+01   4.499514E+01   4.499042E+01   4.498632E+01   4.497919E+01   4.496784E+01   4.496485E+01   4.496512E+01   4.496747E+01   4.497052E+01   4.497325E+01   4.497992E+01   4.497307E+01   4.496601E+01   4.495568E+01   4.495475E+01   4.496083E+01   4.496342E+01   4.496545E+01   4.498307E+01   4.498875E+01   4.499205E+01   4.499607E+01   4.499366E+01   4.498616E+01   4.498886E+01   4.498653E+01   4.498267E+01   4.498881E+01   4.499303E+01   4.499097E+01   4.498930E+01   4.498997E+01   4.498592E+01   4.498359E+01   4.498274E+01   4.498066E+01   4.498182E+01   4.498151E+01   4.498331E+01   4.498341E+01   4.498405E+01   4.498493E+01   4.498415E+01   4.498419E+01   4.498551E+01   4.498687E+01   4.498723E+01
   4.499791E+01   4.499791E+01   4.499723E+01   4.499228E+01   4.498864E+01   4.498260E+01   4.497186E+01   4.496508E+01   4.496227E+01   4.496135E+01   4.495799E+01   4.495919E+01   4.495957E+01   4.496811E+01   4.495958E+01   4.495121E+01   4.493568E+01   4.493670E+01   4.494706E+01   4.494341E+01   4.492899E+01   4.494925E+01   4.495029E+01   4.496644E+01   4.498532E+01   4.497849E+01   4.497329E+01   4.497226E+01   4.496975E+01   4.496405E+01   4.497168E+01   4.497881E+01   4.498235E+01   4.498144E+01   4.499046E+01   4.498738E+01   4.498520E+01   4.498246E+01   4.498043E+01   4.497800E+01   4.497860E+01   4.498168E+01   4.498338E+01   4.498457E+01   4.498462E+01   4.498399E+01   4.498543E+01   4.498561E+01   4.498681E+01   4.498634E+01
   4.499831E+01   4.499833E+01   4.499512E+01   4.499239E+01   4.498344E+01   4.497596E+01   4.496698E+01   4.495794E+01   4.495721E+01   4.495466E+01   4.495276E+01   4.494747E+01   4.494561E+01   4.491898E+01   4.488554E+01   4.489479E+01   4.489904E+01   4.489855E+01   4.490895E+01   4.489599E+01   4.487030E+01   4.488541E+01   4.488607E+01   4.489212E+01   4.492786E+01   4.489468E+01   4.493411E+01   4.494473E+01   4.492883E+01   4.491273E+01   4.491537E+01   4.491436E+01   4.494055E+01   4.495354E+01   4.498391E+01   4.498928E+01   4.498598E+01   4.498000E+01   4.497667E+01   4.497428E+01   4.497166E+01   4.497600E+01   4.498216E+01   4.498380E+01   4.498508E+01   4.498486E+01   4.498432E+01   4.498383E+01   4.498681E+01   4.498592E+01
   4.499820E+01   4.499808E+01   4.499444E+01   4.498822E+01   4.497710E+01   4.496766E+01   4.495916E+01   4.495275E+01   4.495110E+01   4.494769E+01   4.494235E+01   4.493424E+01   4.491569E+01   4.487487E+01   4.486300E+01   4.485789E+01   4.484722E+01   4.483802E+01   4.483597E+01   4.482393E+01   4.477482E+01   4.477341E+01   4.476780E+01   4.476874E+01   4.483031E+01   4.479573E+01   4.483359E+01   4.486244E+01   4.481266E+01   4.482687E+01   4.481454E+01   4.481387E+01   4.486221E+01   4.491222E+01   4.496253E+01   4.497802E+01   4.497700E+01   4.496777E+01   4.496672E+01   4.496564E+01   4.496249E+01   4.496001E+01   4.497481E+01   4.498230E+01   4.498388E+01   4.498523E+01   4.498655E+01   4.498357E+01   4.498616E+01   4.498686E+01
   4.499783E+01   4.499618E+01   4.499102E+01   4.498479E+01   4.497695E+01   4.496681E+01   4.495840E+01   4.495201E+01   4.494941E+01   4.494168E+01   4.493264E+01   4.491413E+01   4.487565E+01   4.484626E+01   4.484100E+01   4.481184E+01   4.477368E+01   4.476901E+01   4.477045E+01   4.472684E+01   4.463206E+01   4.460499E+01   4.458723E+01   4.462614E+01   4.469027E+01   4.462534E+01   4.463813E+01   4.465919E+01   4.466806E+01   4.471872E+01   4.473730E+01   4.474330E+01   4.479238E+01   4.487064E+01   4.493658E+01   4.495073E+01   4.493604E+01   4.493695E+01   4.493773E+01   4.493643E+01   4.493580E+01   4.493609E+01   4.495524E+01   4.497770E+01   4.498266E+01   4.498494E+01   4.498483E+01   4.498597E+01   4.498584E+01   4.498927E+01
   4.499769E+01   4.499482E+01   4.499086E+01   4.498669E+01   4.497989E+01   4.497020E+01   4.495903E+01   4.495264E+01   4.494749E+01   4.493765E+01   4.491915E+01   4.488977E+01   4.484417E+01   4.480415E+01   4.478282E+01   4.474174E+01   4.470700E+01   4.470466E+01   4.467765E+01   4.458463E+01   4.452475E+01   4.450840E+01   4.452464E+01   4.452085E+01   4.450380E+01   4.447926E+01   4.448083E+01   4.452107E+01   4.455610E+01   4.459837E+01   4.465327E+01   4.469585E+01   4.471918E+01   4.479951E+01   4.488627E+01   4.491360E+01   4.490467E+01   4.490534E+01   4.489931E+01   4.490036E+01   4.491043E+01   4.491872E+01   4.493032E+01   4.495899E+01   4.497703E+01   4.498163E+01   4.498467E+01   4.498606E+01   4.498750E+01   4.498897E+01