# BAS6 package for  MODFLOW-NWT, generated by Flopy.
FREE
INTERNAL               1     (FREE) -1 #ibound_layer_0                
         1         1         1         1         1         1         1         1         1         1         1         1         1         1         1         1         1         1         1         1         1         1         1         1         1         1         1         1         1         1         1         1         1         1         1         1         1         1         1         1         1         1         1         1         1         1         1         1         1         1
         1         1         1         1         1         1         1         1         1         1         1         1         1         1         1         1         1         1         1         1         1         1         1         1         1         1         1         1         1         1         1         1         1         1         1         1         1         1         1         1         1         1         1         1         1         1         1         1         1         1
         1         1         1         1         1         1         1         1         1         1         1         1         1         1         1         1         1         1         1         1         1         1         1         1         1         1         1         1         1         1         1         1         1         1         1         1         1         1         1         1         1         1         1         1         1         1         1         1         1         1
         1         1         1         1         1         1         1         1         1         1         1         1         1         1         1         1         1         1         1         1         1         1         1         1         1         1         1         1         1         1         1         1         1         1         1         1         1         1         1         1         1         1         1         1         1         1         1         1         1         1
         1         1         1         1         1         1         1         1         1         1         1         1         1         1         1         1         1         1         1         1         1         1         1         1         1         1         1         1         1         1         1         1         1         1         1         1         1         1         1         1         1         1         1         1         1         1         1         1         1         1
         1         1         1         1         1         1         1         1         1         1         1         1         1         1         1         1         1         1         1         1         1         1         1         1         1         1         1         1         1         1         1         1         1         1         1         1         1         1         1         1         1         1         1         1         1         1         1         1         1         1
         1         1         1         1         1         1         1         1         1         1         1         1         1         1         1         1         1         1         1         1         1         1         1         1         1         1         1         1         1         1         1         1         1         1         1         1         1         1         1         1         1         1         1         1         1         1         1         1         1         1
         1         1         1         1         1         1         1         1         1         1         1         1         1         1         1         1         1         1         1         1         1         1         1         1         1         1         1         1         1         1         1         1         1         1         1         1         1         1         1         1         1         1         1         1         1         1         1         1         1         1
         1         1         1         1         1         1         1         1         1         1         1         1         1         1         1         1         1         1         1         1         1         1         1         1         1         1         1         1         1         1         1         1         1         1         1         1         1         1         1         1         1         1         1         1         1         1         1         1         1         1
         1         1         1         1         1         1         1         1         1         1         1         1         1         1         1         1         1         1         1         1         1         1         1         1         1         1         1         1         1         1         1         1         1         1         1         1         1         1         1         1         1         1         1         1         1         1         1         1         1         1
         1         1         1         1         1         1         1         1         1         1         1         1         1         1         1         1         1         1         1         1         1         1         1         1         1         1         1         1         1         1         1         1         1         1         1         1         1         1         1         1         1         1         1         1         1         1         1         1         1         1
         1         1         1         1         1         1         1         1         1         1         1         1         1         1         1         1         1         1         1         1         1         1         1         1         1         1         1         1         1         1         1         1         1         1         1         1         1         1         1         1         1         1         1         1         1         1         1         1         1         1
         1         1         1         1         1         1         1         1         1         1         1         1         1         1         1         1         1         1         1         1         1         1         1         1         1         1         1         1         1         1         1         1         1         1         1         1         1         1         1         1         1         1         1         1         1         1         1         1         1         1
         1         1         1         1         1         1         1         1         1         1         1         1         1         1         1         1         1         1         1         1         1         1         1         1         1         1         1         1         1         1         1         1         1         1         1         1         1         1         1         1         1         1         1         1         1         1         1         1         1         1
         1         1         1         1         1         1         1         1         1         1         1         1         1         1         1         1         1         1         1         1         1         1         1         1         1         1         1         1         1         1         1         1         1         1         1         1         1         1         1         1         1         1         1         1         1         1         1         1         1         1
         1         1         1         1         1         1         1         1         1         1         1         1         1         1         1         1         1         1         1         1         1         1         1         1         1         1         1         1         1         1         1         1         1         1         1         1         1         1         1         1         1         1         1         1         1         1         1         1         1         1
         1         1         1         1         1         1         1         1         1         1         1         1         1         1         1         1         1         1         1         1         1         1         1         1         1         1         1         1         1         1         1         1         1         1         1         1         1         1         1         1         1         1         1         1         1         1         1         1         1         1
         1         1         1         1         1         1         1         1         1         1         1         1         1         1         1         1         1         1         1         1         1         1         1         1         1         1         1         1         1         1         1         1         1         1         1         1         1         1         1         1         1         1         1         1         1         1         1         1         1         1
         1         1         1         1         1         1         1         1         1         1         1         1         1         1         1         1         1         1         1         1         1         1         1         1         1         1         1         1         1         1         1         1         1         1         1         1         1         1         1         1         1         1         1         1         1         1         1         1         1         1
         1         1         1         1         1         1         1         1         1         1         1         1         1         1         1         1         1         1         1         1         1         1         1         1         1         1         1         1         1         1         1         1         1         1         1         1         1         1         1         1         1         1         1         1         1         1         1         1         1         1
         1         1         1         1         1         1         1         1         1         1         1         1         1         1         1         1         1         1         1         1         1         1         1         1         1         1         1         1         1         1         1         1         1         1         1         1         1         1         1         1         1         1         1         1         1         1         1         1         1         1
         1         1         1         1         1         1         1         1         1         1         1         1         1         1         1         1         1         1         1         1         1         1         1         1         1         1         1         1         1         1         1         1         1         1         1         1         1         1         1         1         1         1         1         1         1         1         1         1         1         1
         1         1         1         1         1         1         1         1         1         1         1         1         1         1         1         1         1         1         1         1         1         1         1         1         1         1         1         1         1         1         1         1         1         1         1         1         1         1         1         1         1         1         1         1         1         1         1         1         1         1
         1         1         1         1         1         1         1         1         1         1         1         1         1         1         1         1         1         1         1         1         1         1         1         1         1         1         1         1         1         1         1         1         1         1         1         1         1         1         1         1         1         1         1         1         1         1         1         1         1         1
         1         1         1         1         1         1         1         1         1         1         1         1         1         1         1         1         1         1         1         1         1         1         1         1         1         1         1         1         1         1         1         1         1         1         1         1         1         1         1         1         1         1         1         1         1         1         1         1         1         1
         1         1         1         1         1         1         1         1         1         1         1         1         1         1         1         1         1         1         1         1         1         1         1         1         1         1         1         1         1         1         1         1         1         1         1         1         1         1         1         1         1         1         1         1         1         1         1         1         1         1
         1         1         1         1         1         1         1         1         1         1         1         1         1         1         1         1         1         1         1         1         1         1         1         1         1         1         1         1         1         1         1         1         1         1         1         1         1         1         1         1         1         1         1         1         1         1         1         1         1         1
         1         1         1         1         1         1         1         1         1         1         1         1         1         1         1         1         1         1         1         1         1         1         1         1         1         1         1         1         1         1         1         1         1         1         1         1         1         1         1         1         1         1         1         1         1         1         1         1         1         1
         1         1         1         1         1         1         1         1         1         1         1         1         1         1         1         1         1         1         1         1         1         1         1         1         1         1         1         1         1         1         1         1         1         1         1         1         1         1         1         1         1         1         1         1         1         1         1         1         1         1
         1         1         1         1         1         1         1         1         1         1         1         1         1         1         1         1         1         1         1         1         1         1         1         1         1         1         1         1         1         1         1         1         1         1         1         1         1         1         1         1         1         1         1         1         1         1         1         1         1         1
         1         1         1         1         1         1         1         1         1         1         1         1         1         1         1         1         1         1         1         1         1         1         1         1         1         1         1         1         1         1         1         1         1         1         1         1         1         1         1         1         1         1         1         1         1         1         1         1         1         1
         1         1         1         1         1         1         1         1         1         1         1         1         1         1         1         1         1         1         1         1         1         1         1         1         1         1         1         1         1         1         1         1         1         1         1         1         1         1         1         1         1         1         1         1         1         1         1         1         1         1
         1         1         1         1         1         1         1         1         1         1         1         1         1         1         1         1         1         1         1         1         1         1         1         1         1         1         1         1         1         1         1         1         1         1         1         1         1         1         1         1         1         1         1         1         1         1         1         1         1         1
         1         1         1         1         1         1         1         1         1         1         1         1         1         1         1         1         1         1         1         1         1         1         1         1         1         1         1         1         1         1         1         1         1         1         1         1         1         1         1         1         1         1         1         1         1         1         1         1         1         1
         1         1         1         1         1         1         1         1         1         1         1         1         1         1         1         1         1         1         1         1         1         1         1         1         1         1         1         1         1         1         1         1         1         1         1         1         1         1         1         1         1         1         1         1         1         1         1         1         1         1
         1         1         1         1         1         1         1         1         1         1         1         1         1         1         1         1         1         1         1         1         1         1         1         1         1         1         1         1         1         1         1         1         1         1         1         1         1         1         1         1         1         1         1         1         1         1         1         1         1         1
         1         1         1         1         1         1         1         1         1         1         1         1         1         1         1         1         1         1         1         1         1         1         1         1         1         1         1         1         1         1         1         1         1         1         1         1         1         1         1         1         1         1         1         1         1         1         1         1         1         1
         1         1         1         1         1         1         1         1         1         1         1         1         1         1         1         1         1         1         1         1         1         1         1         1         1         1         1         1         1         1         1         1         1         1         1         1         1         1         1         1         1         1         1         1         1         1         1         1         1         1
         1         1         1         1         1         1         1         1         1         1         1         1         1         1         1         1         1         1         1         1         1         1         1         1         1         1         1         1         1         1         1         1         1         1         1         1         1         1         1         1         1         1         1         1         1         1         1         1         1         1
         1         1         1         1         1         1         1         1         1         1         1         1         1         1         1         1         1         1         1         1         1         1         1         1         1         1         1         1         1         1         1         1         1         1         1         1         1         1         1         1         1         1         1         1         1         1         1         1         1         1
         1         1         1         1         1         1         1         1         1         1         1         1         1         1         1         1         1         1         1         1         1         1         1         1         1         1         1         1         1         1         1         1         1         1         1         1         1         1         1         1         1         1         1         1         1         1         1         1         1         1
         1         1         1         1         1         1         1         1         1         1         1         1         1         1         1         1         1         1         1         1         1         1         1         1         1         1         1         1         1         1         1         1         1         1         1         1         1         1         1         1         1         1         1         1         1         1         1         1         1         1
         1         1         1         1         1         1         1         1         1         1         1         1         1         1         1         1         1         1         1         1         1         1         1         1         1         1         1         1         1         1         1         1         1         1         1         1         1         1         1         1         1         1         1         1         1         1         1         1         1         1
         1         1         1         1         1         1         1         1         1         1         1         1         1         1         1         1         1         1         1         1         1         1         1         1         1         1         1         1         1         1         1         1         1         1         1         1         1         1         1         1         1         1         1         1         1         1         1         1         1         1
         1         1         1         1         1         1         1         1         1         1         1         1         1         1         1         1         1         1         1         1         1         1         1         1         1         1         1         1         1         1         1         1         1         1         1         1         1         1         1         1         1         1         1         1         1         1         1         1         1         1
         1         1         1         1         1         1         1         1         1         1         1         1         1         1         1         1         1         1         1         1         1         1         1         1         1         1         1         1         1         1         1         1         1         1         1         1         1         1         1         1         1         1         1         1         1         1         1         1         1         1
         1         1         1         1         1         1         1         1         1         1         1         1         1         1         1         1         1         1         1         1         1         1         1         1         1         1         1         1         1         1         1         1         1         1         1         1         1         1         1         1         1         1         1         1         1         1         1         1         1         1
         1         1         1         1         1         1         1         1         1         1         1         1         1         1         1         1         1         1         1         1         1         1         1         1         1         1         1         1         1         1         1         1         1         1         1         1         1         1         1         1         1         1         1         1         1         1         1         1         1         1
         1         1         1         1         1         1         1         1         1         1         1         1         1         1         1         1         1         1         1         1         1         1         1         1         1         1         1         1         1         1         1         1         1         1         1         1         1         1         1         1         1         1         1         1         1         1         1         1         1         1
         1         1         1         1         1         1         1         1         1         1         1         1         1         1         1         1         1         1         1         1         1         1         1         1         1         1         1         1         1         1         1         1         1         1         1         1         1         1         1         1         1         1         1         1         1         1         1         1         1         1
   -999.99
INTERNAL               1  (50E15.6) -1 #strt layer 1                  
   4.500072E+01   4.500019E+01   4.500012E+01   4.499998E+01   4.500012E+01   4.500021E+01   4.500000E+01   4.500023E+01   4.500055E+01   4.500148E+01   4.500251E+01   4.500402E+01   4.500506E+01   4.500571E+01   4.500749E+01   4.500770E+01   4.500918E+01   4.500823E+01   4.501024E+01   4.501144E+01   4.501170E+01   4.501679E+01   4.501757E+01   4.501966E+01   4.502069E+01   4.501954E+01   4.501802E+01   4.501401E+01   4.501044E+01   4.500766E+01   4.500530E+01   4.500342E+01   4.500078E+01   4.499857E+01   4.499760E+01   4.499566E+01   4.499531E+01   4.499510E+01   4.499625E+01   4.499725E+01   4.499816E+01   4.499962E+01   4.500016E+01   4.500050E+01   4.500050E+01   4.500050E+01   4.500051E+01   4.500069E+01   4.499985E+01   4.499825E+01
   4.500046E+01   4.500034E+01   4.500027E+01   4.499932E+01   4.499916E+01   4.499879E+01   4.499799E+01   4.499931E+01   4.500009E+01   4.500043E+01   4.500168E+01   4.500294E+01   4.500560E+01   4.500575E+01   4.500772E+01   4.500705E+01   4.500569E+01   4.500624E+01   4.500877E+01   4.500804E+01   4.500298E+01   4.500569E+01   4.500561E+01   4.501252E+01   4.501667E+01   4.501638E+01   4.501438E+01   4.501277E+01   4.500764E+01   4.500293E+01   4.500361E+01   4.500400E+01   4.499965E+01   4.499510E+01   4.499655E+01   4.499492E+01   4.499411E+01   4.499449E+01   4.499579E+01   4.499678E+01   4.499827E+01   4.499978E+01   4.500001E+01   4.500050E+01   4.500063E+01   4.500060E+01   4.500062E+01   4.500061E+01   4.500020E+01   4.499984E+01
   4.500069E+01   4.500023E+01   4.499998E+01   4.499906E+01   4.499770E+01   4.499666E+01   4.499820E+01   4.499911E+01   4.499957E+01   4.500052E+01   4.500144E+01   4.500296E+01   4.500521E+01   4.500744E+01   4.500207E+01   4.500186E+01   4.499802E+01   4.500000E+01   4.500397E+01   4.499879E+01   4.498518E+01   4.498528E+01   4.498574E+01   4.499408E+01   4.500082E+01   4.499318E+01   4.500611E+01   4.500764E+01   4.499861E+01   4.499463E+01   4.499385E+01   4.499327E+01   4.499087E+01   4.499055E+01   4.499412E+01   4.499384E+01   4.499215E+01   4.499137E+01   4.499362E+01   4.499580E+01   4.499736E+01   4.499876E+01   4.499993E+01   4.500077E+01   4.500063E+01   4.500061E+01   4.500057E+01   4.500063E+01   4.500028E+01   4.499989E+01
   4.500069E+01   4.500015E+01   4.499938E+01   4.499791E+01   4.499791E+01   4.499680E+01   4.499726E+01   4.499820E+01   4.499847E+01   4.499974E+01   4.500023E+01   4.500111E+01   4.500128E+01   4.499447E+01   4.499137E+01   4.499094E+01   4.499057E+01   4.499160E+01   4.499012E+01   4.497781E+01   4.495519E+01   4.495462E+01   4.495554E+01   4.496119E+01   4.498069E+01   4.496399E+01   4.498312E+01   4.498955E+01   4.497681E+01   4.497972E+01   4.497637E+01   4.497070E+01   4.497736E+01   4.498496E+01   4.498992E+01   4.499221E+01   4.498947E+01   4.498804E+01   4.499204E+01   4.499500E+01   4.499456E+01   4.499609E+01   4.499934E+01   4.500087E+01   4.500103E+01   4.500079E+01   4.500056E+01   4.500069E+01   4.500060E+01   4.499945E+01
   4.500140E+01   4.499965E+01   4.499751E+01   4.499746E+01   4.499781E+01   4.499580E+01   4.499653E+01   4.499745E+01   4.499752E+01   4.499789E+01   4.499770E+01   4.499573E+01   4.498918E+01   4.498181E+01   4.498212E+01   4.498309E+01   4.497776E+01   4.497631E+01   4.497048E+01   4.494873E+01   4.490072E+01   4.489503E+01   4.488459E+01   4.490102E+01   4.494413E+01   4.490911E+01   4.492574E+01   4.493306E+01   4.493391E+01   4.494956E+01   4.495461E+01   4.495431E+01   4.496392E+01   4.497911E+01   4.498919E+01   4.498915E+01   4.498582E+01   4.498682E+01   4.498849E+01   4.499116E+01   4.499081E+01   4.499125E+01   4.499791E+01   4.500054E+01   4.500061E+01   4.500062E+01   4.500045E+01   4.500088E+01   4.500081E+01   4.500017E+01
   4.500017E+01   4.499832E+01   4.499664E+01   4.499724E+01   4.499586E+01   4.499549E+01   4.499610E+01   4.499678E+01   4.499757E+01   4.499672E+01   4.499261E+01   4.498587E+01   4.497328E+01   4.496530E+01   4.496541E+01   4.496342E+01   4.495603E+01   4.495604E+01   4.494325E+01   4.489325E+01   4.484110E+01   4.482981E+01   4.484003E+01   4.483604E+01   4.484161E+01   4.482193E+01   4.482481E+01   4.485754E+01   4.488445E+01   4.490100E+01   4.492083E+01   4.493575E+01   4.494138E+01   4.496490E+01   4.498488E+01   4.498629E+01   4.498100E+01   4.498089E+01   4.498320E+01   4.498507E+01   4.498840E+01   4.498931E+01   4.499480E+01   4.499934E+01   4.500108E+01   4.500035E+01   4.500051E+01   4.500074E+01   4.500097E+01   4.500021E+01