# UPW package for  MODFLOW-NWT, generated by Flopy.
        55    -1E+30         0         0 
         1
         0
   1.000000E+00
         0
         0
INTERNAL               1  (50E15.6) -1 #hk layer 1                    
   3.236924E-01   7.562835E-01   4.541269E-01   5.583605E-02   3.791412E-02   1.999423E-01   5.280709E-02   1.978455E-01   5.125999E-01   1.638308E-01   1.367144E-01   4.937377E-02   7.951488E-02   4.341668E-02   1.164033E-01   1.263414E-01   2.554788E-01   2.231247E-01   1.740379E-01   7.828937E-02   5.411525E-02   1.454760E-02   8.062092E-03   6.031152E-03   1.052427E-02   1.494511E-02   7.361852E-02   4.851021E-02   3.896748E-02   5.826233E-02   3.038172E-02   1.330839E-01   4.055080E-01   3.453046E-01   2.009348E-01   1.417207E+00   3.778698E+00   2.896316E+00   3.820282E+00   1.184520E+01   7.709225E+00   7.070065E+00   3.787130E+01   1.132454E+02   5.168830E+01   1.579532E+02   3.097350E+00   7.503794E+00   2.763284E+00   1.559899E+00
   9.480407E-01   8.626993E-01   5.123166E-02   9.095573E-02   1.279991E-01   5.355838E-02   2.458009E-01   6.381146E-01   1.986835E+00   6.570025E-01   5.281785E-01   1.182323E-01   2.282822E-01   1.778604E-02   1.367372E-02   2.277798E-02   1.768788E-01   1.759588E-01   1.104578E-01   1.469793E-01   1.103563E-01   3.646773E-02   3.925788E-02   1.615574E-02   7.601607E-03   6.664805E-03   1.206152E-01   7.538994E-02   1.053341E-01   1.058916E-01   4.434046E-02   2.797933E-02   4.403696E-02   1.744571E-01   5.885152E-02   2.639991E-01   6.852724E-01   1.367712E+00   5.893102E+00   2.060366E+00   1.137297E+00   1.090489E+01   9.710782E+00   1.645410E+01   7.916040E+01   3.597602E+01   3.933099E+01   6.316256E+00   2.886591E+01   1.034235E+01
   4.195860E-01   1.264056E-01   5.313010E-02   3.747210E-02   1.673788E-01   1.298714E-01   1.567916E-01   8.724543E-01   8.905618E-01   1.166719E+00   1.172011E+00   7.594710E-01   2.763144E-01   4.937116E-02   2.977690E-01   5.888170E-02   3.113411E-01   2.024348E-01   4.474116E-02   1.004967E-01   2.853468E-01   7.995131E-02   1.488956E-01   7.202436E-02   2.476330E-02   1.604653E-01   3.269562E-02   1.128481E-01   6.689403E-02   1.365403E-01   7.437798E-02   8.401942E-02   9.332553E-02   4.109036E-01   8.089189E-02   1.160833E-01   2.613319E-01   9.441004E-01   2.009796E+00   3.652203E+00   4.366583E+00   6.735593E-01   2.690334E+00   7.910636E+00   9.129970E+01   8.639259E+01   1.333367E+01   3.298062E+01   3.551748E+01   1.236261E+01
   2.334159E+00   2.316886E-01   1.381912E-01   3.196079E-02   5.329446E-01   6.537356E-01   9.312849E-01   9.181243E+00   1.217618E+00   7.505945E-01   8.928176E-01   7.025232E-01   6.635626E-02   1.872010E-01   4.244753E-01   2.430561E-01   1.681985E-01   2.311772E-01   1.476749E-01   1.807692E-01   1.736031E-01   6.419608E-02   5.459307E-02   1.307934E-01   7.820717E-02   1.654593E-01   4.908366E-02   2.368129E-02   7.067929E-02   2.415792E-01   3.135599E-01   7.497588E-01   5.685036E-01   4.646546E-01   1.018904E-01   2.634619E-01   1.180323E-01   3.308648E-01   9.360885E-01   8.417788E-01   2.674359E+00   1.192589E+00   1.342524E+00   1.304496E+01   3.414975E+01   1.118110E+01   3.418621E+00   1.114567E+01   9.648342E+00   9.665291E-01
   2.655718E-01   7.737059E-02   1.722324E-01   5.808244E-01   7.122656E-01   1.704900E+00   2.231039E+00   1.566709E+01   6.188695E+00   3.620584E+00   1.554245E+00   4.379929E-01   2.479627E-01   3.507740E-01   9.061341E-01   1.597472E-01   3.161514E-01   3.061185E-01   4.372582E-01   8.151937E-02   5.744699E-01   1.988792E-01   6.841964E-01   5.144154E-01   6.680615E-02   3.208053E-01   7.702477E-02   9.673098E-02   4.578896E-01   1.723702E-01   3.536231E-01   7.013350E+00   4.979375E-01   2.952602E-01   1.633853E-01   3.508163E-01   5.283816E-01   1.314612E+00   2.982465E-01   3.593380E-01   1.604291E+00   3.062244E+00   3.488036E-01   1.675278E+00   2.267277E+00   1.334679E+01   6.973493E+00   3.645241E+00   8.422096E+00   4.762589E-01
   1.141731E+00   2.608178E-01   4.974753E-01   7.143602E-01   7.771307E-01   1.145766E+00   1.509790E+00   5.338996E+00   1.153326E+01   1.169965E+00   1.972839E+00   1.356621E+00   1.325614E+00   6.038910E-01   2.406994E-01   6.561407E-01   1.206259E+00   5.013867E-01   8.725307E-02   1.103855E-01   8.855238E-01   7.417144E-01   1.297741E+00   2.028508E-01   1.583210E-01   4.958816E-01   6.349362E-01   3.035185E-01   3.016987E-01   3.525921E-01   1.099014E+00   2.274282E+00   1.621463E+00   3.105448E-01   1.139796E-01   1.953482E-01   1.065383E+00   6.362414E-01   2.787540E+00   1.548292E+00   2.325054E+00   2.613185E+00   9.187009E-01   4.592476E-01   1.376058E+00   1.416551E+00   7.764704E-01   7.922572E-01   3.263842E+00   5.907882E-01
   8.464950E-01   8.541527E-02   5.933834E-01   7.416945E-01   2.218339E+00   5.683954E-01   5.563350E-01   9.822316E-01   7.930117E-01   1.055373E+01   9.334446E-01   5.724415E-01   1.804557E+00   4.383537E+00   1.640223E+00   4.179649E-01   1.767250E+00   4.597735E-01   2.352286E-01   8.901464E-01   3.292784E+00   2.140545E+00   4.487967E-01   1.525396E+00   6.276395E-01   2.421630E+00   1.184791E+00   3.820019E-01   3.232455E+00   2.760428E+00   1.514226E+00   2.920414E+00   1.769058E+00   4.076405E-01   2.576656E-01   4.231969E-01   1.825417E+00   2.538404E+00   9.940312E-01   1.619796E+00   2.280933E+00   2.252673E+00   2.034901E+00   6.323536E-01   3.860804E-01   1.014060E+00   2.364374E-01   3.880546E-01   2.403714E+00   2.300058E+00
   1.045104E+01   1.538915E+00   1.009025E+00   2.157314E-01   1.174573E-01   4.771236E-01   6.933053E-01   2.273135E+00   5.828666E+00   1.067809E+00   1.330925E+00   4.495948E-01   3.696665E-01   1.991888E+00   1.919134E+00   4.858851E+00   8.512195E-01   3.857581E-01   1.994718E+00   2.975237E+00   1.960901E+01   6.586520E+00   4.217110E-01   1.601637E+00   3.629842E+00   6.641614E+00   2.845038E+00   1.400132E+00   2.927440E+00   9.096849E+00   1.413528E+00   1.520908E+00   4.643728E+00   8.802795E-01   8.969350E-01   3.482642E-01   1.087176E+00   1.169538E+00   1.271804E+00   3.809267E+00   1.624543E+00   1.129195E+00   2.697292E+00   2.015032E+00   4.547356E-01   9.928017E-01   7.060877E+00   9.087080E+00   1.427565E+01   1.705118E+00
   1.551920E+01   1.728004E+00   1.893575E+00   5.112474E-01   3.349353E-01   4.214126E-01   3.480296E-01   1.232025E+00   1.030345E+00   9.714834E-01   6.080319E-01   3.760263E-01   1.964721E-01   2.546141E+00   1.903067E+00   4.127950E+00   2.330186E+00   7.714005E-01   1.457686E+00   6.060383E-01   2.350525E+00   2.841501E+00   2.965923E+00   7.211242E+00   2.423755E+00   4.117385E+00   2.794338E+01   1.850622E+00   2.601376E+00   2.225728E+00   5.733126E-01   6.138525E+00   4.459959E+00   1.198582E+00   9.872438E-01   2.260948E+00   9.120046E-01   7.493188E-01   2.042271E+00   7.584645E+00   4.741667E+00   2.640146E+00   1.454041E+00   1.006047E+00   1.091936E+00   2.617232E+00   4.151625E+00   4.044831E+00   1.222232E+00   6.238021E-01
   1.510146E+01   5.724119E+00   1.147977E+01   3.198568E+00   5.033984E+00   3.221741E-01   1.771831E-01   9.178087E-01   3.078278E-01   5.714019E-01   3.425517E-01   2.703982E+00   2.956145E+00   4.440318E+00   4.921794E+00   1.695331E+00   8.448747E-01   7.747791E+00   5.230980E+00   1.965459E+00   8.645223E-01   4.866199E-01   3.942940E+00   4.402973E+00   2.673910E+00   1.194548E+00   1.163639E+00   6.316814E-01   3.713335E+00   1.887494E+00   2.320451E+00   9.981887E+00   2.095690E+01   5.550010E+00   4.451021E+00   4.853290E+00   6.671896E+00   6.281797E+00   2.082940E+00   3.560570E+00   2.575718E+00   3.340458E+00   3.015472E-01   4.996032E-01   4.511986E-01   3.885486E-01   1.050287E+00   9.107794E-01   3.093673E-01   5.708702E-01
   2.021595E+01   2.696710E+01   1.476268E+01   3.942551E+00   1.666680E+00   9.909666E-01   7.455981E-01   2.823837E-01   6.162736E-01   3.916199E-01   1.613448E+00   1.420179E+00   5.650645E-01   1.879567E+00   1.082499E+01   3.630268E+00   2.936440E+00   3.853537E+00   4.413441E+00   1.884972E+01   1.008457E+00   1.835883E+00   5.442060E+00   5.503635E+00   4.957565E+00   2.735264E+00   7.266715E-01   3.617519E+00   9.900544E+00   1.776501E+00   1.614042E+00   2.717585E+00   2.625331E+00   3.772406E+00   4.730297E+00   5.009836E+00   7.925817E+00   6.487096E+00   2.483580E+00   5.967492E+00   1.780728E+01   1.358675E+00   1.823474E-01   3.003165E-01   9.138936E-01   9.690296E-02   6.721374E-02   7.834388E-02   2.544487E-01   2.075207E-01
   1.568258E+01   2.070121E+01   3.307852E+00   9.592875E-01   6.224567E-01   1.801444E+00   5.079032E-01   2.128140E-01   5.552937E-01   1.068757E+00   4.626714E-01   2.718939E-01   2.723954E-01   1.155808E+00   2.487643E+00   9.556816E+00   1.148297E+00   4.651450E+00   3.435091E+00   4.614931E+00   3.086981E+00   1.136274E+01   5.908814E+00   7.362455E+00   3.388662E+00   1.153540E+00   4.732224E-01   1.218700E+01   3.493616E+01   1.283575E+01   2.391132E+00   9.057752E-01   7.414568E-01   1.851072E+00   9.398506E-01   1.849981E+00   2.669310E+01   1.112636E+01   1.751536E+00   6.416161E+00   1.321333E+00   9.717352E-01   5.795881E-01   4.615498E-01   4.794359E-01   3.488610E-01   1.451411E-01   2.459592E-01   3.178262E-01   6.398404E-02
   1.502670E+01   2.169900E+01   1.865985E+01   1.993691E+00   1.228080E+00   4.205201E+00   6.001603E-01   3.934788E-01   2.202196E-01   9.983896E-01   1.473153E+00   9.989452E-01   7.450489E-01   1.512795E+00   1.926553E+00   3.864261E+00   6.335092E+00   1.690359E+00   1.624299E+00   1.590161E+00   1.953419E+01   3.608634E+01   4.055803E+01   9.363805E+00   4.765276E+00   2.030357E+01   1.850564E+00   8.843882E+00   1.239316E+01   2.176600E+00   5.967426E-01   3.940035E-01   4.557698E-01   8.836761E-01   5.190721E-01   4.779921E+00   5.117945E+00   1.883817E+00   4.879829E+00   1.618375E+00   1.314672E+00   5.493528E-01   9.237182E-01   4.703086E-01   1.913058E+00   2.520919E+00   3.602164E-01   2.168732E-01   5.170111E-01   5.771098E-02
   2.105215E+01   1.383237E+01   1.018326E+00   6.255359E-01   6.887199E-01   2.505336E+00   1.016837E+00   4.447612E-01   1.475332E+00   1.097980E+00   3.230455E-01   3.743452E-01   5.109257E-01   6.157920E-01   8.765706E-01   4.514626E-01   3.188459E+00   8.792143E+00   4.044861E+00   8.557326E+00   1.382629E+01   7.230904E+01   6.002451E+01   7.635438E+00   1.724429E+01   8.027955E+00   4.019897E+00   2.169447E+01   6.726242E+00   4.816319E+00   7.842203E-01   1.005265E+00   1.739743E+00   1.616763E+00   4.277175E+00   8.025940E+00   1.428500E+00   7.979823E-01   2.757052E-01   7.422407E-01   5.936606E-01   1.797744E+00   5.318096E-01   5.229098E-01   5.596499E+00   1.822236E+00   2.620873E-01   5.670843E-01   7.414050E-01   1.741940E-01
   1.007666E+00   3.887639E+00   2.661897E+00   3.953497E-01   6.435389E-01   5.494356E-01   1.879274E+00   1.008330E+00   4.898691E+00   2.116011E+00   1.609930E-01   5.314657E-01   1.594731E+00   9.987770E-01   6.128901E-01   3.642045E-01   4.554332E-01   3.250865E+00   3.942468E+00   1.057903E+01   1.839104E+01   8.993989E+01   7.904751E+01   4.776899E+01   2.103313E+02   1.444478E+02   8.370426E+00   2.115983E+01   1.535265E+01   8.880016E+00   9.387480E+00   2.913372E+00   1.644635E+01   4.627836E+00   4.467336E+00   2.925677E+00   1.639042E+00   5.789366E-01   2.186989E-01   5.191242E-01   9.751266E-01   1.379425E+00   1.163933E+00   1.028627E+01   3.563541E+00   4.339352E+00   6.017858E-01   2.924992E-01   1.538076E+00   3.083721E-01
   1.562904E+00   3.852338E+00   1.305876E+00   2.102006E+00   4.728562E-01   4.462801E-01   1.099383E+00   8.207121E-01   1.429303E+00   5.123771E-01   1.191342E-01   1.049833E-01   7.041066E-01   5.844838E-01   3.373162E-01   3.454370E-01   5.722417E-01   5.335560E-01   1.489429E+00   1.763505E+01   4.875825E+01   8.010000E+01   3.218629E+02   2.123337E+02   2.364942E+02   4.762352E+01   6.725869E+01   5.889006E+01   2.584469E+01   8.015358E+00   1.170438E+01   8.581529E+00   2.461457E+01   1.234372E+01   3.264622E+00   2.934789E+00   1.792086E+00   2.032679E+00   4.344769E+00   3.427579E-01   6.008925E-01   1.149211E+00   1.851918E+00   7.006890E+00   9.117019E+00   4.871399E+00   1.072211E+00   9.845564E-01   5.763920E-01   1.259050E-01
   6.281500E-01   3.340027E+00   2.672819E+00   2.023882E+00   2.473404E+00   5.113132E-01   7.271540E+00   4.222723E+00   9.973038E-01   7.209715E-01   4.693511E-01   3.449922E-01   3.605076E-01   9.310281E-01   3.947082E-01   2.508930E-01   9.574479E-01   1.702358E+00   1.708280E+00   2.543408E+00   5.204053E+00   6.783112E+01   7.798986E+02   3.707462E+02   5.781928E+02   5.203617E+01   4.954171E+01   1.152104E+02   3.044447E+01   1.457001E+01   1.301378E+01   3.551582E+01   1.603415E+01   7.350338E+00   1.681514E+00   1.026856E+00   3.335536E+00   3.563703E+00   1.870601E+01   2.030386E+01   8.705474E+00   7.535095E+00   3.168470E+00   5.301347E+00   1.735599E+00   5.886799E-01   8.848234E-01   5.905539E+00   1.982289E+00   2.820111E-01
   7.021812E-01   7.319496E-01   2.107928E+00   2.375063E+00   4.553403E+00   2.168046E+00   3.565718E+00   1.179398E+01   8.024158E+00   5.620852E+00   5.561843E-01   4.168282E-01   4.764114E-01   2.400736E-01   8.454096E-01   8.565328E+00   4.850452E+00   3.505337E+00   2.318712E+00   5.034313E+00   7.483712E+00   8.595902E+01   2.931110E+02   4.957943E+02   2.359283E+02   3.565549E+01   2.876703E+01   8.275045E+00   1.719524E+01   8.028047E+00   4.099380E+00   1.194788E+01   2.011632E+01   7.532372E-01   1.213707E+00   6.519192E-01   1.218455E+00   8.684877E+00   2.633937E+01   6.214489E+01   2.067631E+01   2.255878E+00   2.522679E+00   3.089097E+00   1.037476E+00   3.498910E+00   1.246512E+00   1.690956E+00   5.705737E-01   3.025839E-01
   5.671989E-01   3.571898E-01   8.640936E-01   4.217917E-01   4.384729E-01   1.306700E+00   5.809758E+00   6.753528E+00   3.088660E+01   3.232762E+00   2.254881E+00   9.601747E-01   8.608009E-01   8.697854E-01   3.186999E+00   7.200412E+00   6.920988E+00   7.958317E+00   6.981054E-01   4.785975E+00   2.705445E+01   3.008134E+01   6.965478E+01   2.916249E+02   2.328387E+02   2.451536E+02   2.440330E+01   2.176173E+01   1.465534E+01   2.936558E+00   1.081489E+01   1.201209E+01   3.310655E+00   4.495598E-01   2.275148E-01   1.957790E+00   4.067922E+00   1.365219E+01   1.555544E+01   4.986954E+01   1.953768E+01   1.803348E+00   5.014149E+00   6.080891E+00   4.034916E+00   1.507593E+00   1.022249E+00   7.459630E-02   9.693506E-02   5.127969E-02
   1.852014E-01   2.064635E-01   2.933362E-01   1.513654E-01   3.392100E-01   6.515502E-01   6.361405E-01   1.052881E+00   2.363003E+00   1.832150E+00   2.398720E+00   4.296024E-01   1.117945E+00   1.410130E+00   5.144873E+00   9.648225E+00   1.024577E+01   4.237972E+00   3.286094E+00   1.494979E+01   4.153072E+01   3.004019E+01   1.126202E+02   2.762172E+02   2.332093E+02   2.292959E+01   1.530615E+01   1.298751E+01   1.839238E+00   5.881653E+00   2.491144E+00   2.451071E+00   2.984953E+00   6.051174E-01   8.967461E-01   5.460544E+00   2.680719E+00   1.202169E+01   3.215616E+00   1.447833E+01   6.480323E+00   1.086258E+00   8.587554E-01   3.276094E+00   1.102504E+00   1.276064E+00   1.459290E-01   1.458667E-01   6.341577E-02   2.578856E-02
   3.502223E-01   8.656752E-01   6.214637E-01   3.108714E-01   7.527954E-02   2.409044E-01   1.297825E-01   2.086054E+00   1.144816E+00   2.609913E+00   3.364408E+00   1.527596E+00   5.808608E+00   1.416111E+00   2.741198E+00   2.923964E+00   9.544810E+00   4.937548E+00   5.650990E+00   3.881107E+01   1.078388E+02   3.506656E+01   4.241211E+01   3.001728E+01   1.195603E+01   1.301637E+01   6.630820E+00   1.349728E+01   4.567185E+00   3.493145E+00   3.290291E+00   1.185497E+00   5.586679E-01   2.441912E-01   4.806321E-01   6.732079E+00   3.698508E+00   1.955782E+00   1.795969E+00   1.847463E+00   3.362989E-01   4.446050E-01   1.246830E+00   1.982123E+00   5.086452E-01   2.176470E+00   2.883008E-01   2.494621E-01   4.443061E-02   2.024410E-02
   5.475531E-01   4.115039E-01   1.051342E+00   2.633318E-01   4.691146E-02   9.407984E-03   1.338725E-01   6.786752E-01   1.552208E+00   4.889566E+00   1.817939E+00   3.612346E+00   9.124381E+00   1.089616E+01   1.375800E+00   1.105317E+01   5.895532E+00   1.605927E+01   8.845510E+00   3.440322E+01   2.139841E+02   1.594812E+01   2.493282E+01   1.471742E+01   4.814967E+00   4.380713E+00   8.487260E+00   3.940166E+00   1.712626E+00   8.058354E-01   1.131829E+00   2.136324E-01   3.249781E-01   2.035859E-01   2.060521E+00   2.898353E+00   2.349581E+00   3.071125E+00   5.819478E-01   6.903582E-01   1.094654E+00   5.023388E-01   2.165948E-01   2.008147E-01   3.063860E-01   7.222783E-02   3.726596E-02   4.446960E-01   1.448262E-01   3.493727E-01
   1.586665E+00   8.050669E-01   1.805075E+00   1.326723E-01   6.505799E-02   1.274516E-02   1.095382E-01   1.493847E+00   2.023929E+00   1.197826E+00   4.174321E+00   3.895828E+00   2.033824E+00   1.472761E+00   2.234294E+00   1.329364E+01   1.620794E+01   4.611361E+00   4.838956E+00   6.105739E+01   1.824130E+02   7.236230E+01   1.213185E+02   9.822021E+00   8.450277E+00   3.936244E+00   5.184024E+00   1.296077E+00   1.519305E+00   7.345487E-01   2.248841E-01   6.967328E-01   2.612825E-01   3.738925E-01   3.824353E-01   6.942797E-01   2.063157E+00   9.998822E-01   1.644707E-01   3.335730E-01   1.417594E-01   4.065844E-01   6.442929E-01   3.587304E-01   2.693796E-01   1.887453E-01   2.997035E-01   4.519577E-01   4.180192E-01   1.287762E+00
   1.966286E-01   2.003478E+00   6.130883E-01   2.714515E-01   4.513346E-02   1.242319E-02   1.360607E-02   2.114143E-01   4.986516E-01   1.066947E+00   4.856734E+00   9.103237E-01   2.908944E+00   3.336795E+00   5.162798E+00   1.201733E+01   3.153187E+00   5.086225E+00   5.767526E+01   5.303321E+01   2.112213E+02   3.051561E+02   7.463582E+01   2.734126E+01   4.130984E+01   5.532461E+00   1.087616E+01   2.419020E+01   5.647517E+00   5.718205E-01   1.374980E+00   4.784314E-01   9.064124E-02   1.146891E+00   1.546519E+00   5.806963E-01   2.945471E-01   2.412846E-01   7.316811E-02   1.419046E-02   2.584128E-01   2.867741E-01   2.691073E-01   2.546977E-01   1.031543E-01   1.814719E-01   7.359933E-02   4.230216E-01   8.753201E-01   1.739054E+00
   6.464595E-02   2.190094E-02   9.005923E-02   1.373692E-01   4.932323E-02   7.677506E-03   5.717566E-03   2.642729E-02   1.965107E-01   7.741141E-01   1.293303E+00   4.550893E+00   7.467000E+00   2.743555E+00   3.018653E+01   2.342825E+01   2.849036E+01   1.383225E+01   1.188073E+02   7.038746E+02   7.057994E+02   4.927291E+02   8.650873E+01   1.143680E+01   1.551604E+01   1.896919E+01   6.846790E+01   1.624868E+01   1.224043E+01   1.517978E+00   6.293520E+00   1.636182E+00   9.983288E-01   1.243114E+00   4.262851E-01   2.451958E-01   2.008950E-01   1.305558E-01   1.711360E-02   3.375023E-02   2.040672E-01   3.500527E-01   1.582991E-01   2.034765E-01   4.706112E-02   1.712878E-01   1.251559E-01   3.142123E-01   2.501298E-01   3.229410E+00
   2.192453E-02   1.321794E-02   2.038621E-02   1.373958E-01   2.113093E-02   7.241743E-03   9.525975E-03   3.719194E-02   2.134487E-01   2.183503E+00   5.039819E+00   1.914081E+00   3.741805E+00   4.557653E+00   2.284221E+00   3.755342E+00   8.774170E+00   9.440791E+01   1.508620E+02   7.293779E+01   4.347386E+02   1.755564E+02   9.149024E+01   1.795257E+01   1.089155E+01   3.633091E+01   1.841701E+01   6.909763E+00   6.725699E+00   3.255102E+00   5.473777E+00   4.736106E+00   1.978131E+00   2.620032E+00   1.207214E-01   1.215151E-01   1.426122E-01   5.223256E-01   1.093398E-01   6.631958E-02   1.298352E-01   3.141765E-01   1.437426E-01   7.218754E-02   4.208269E-02   7.842516E-02   4.624380E-02   6.204252E-02   1.709695E-01   7.693219E-01
   3.644202E-02   5.105001E-02   3.734462E-02   1.400929E-01   5.455520E-02   7.542271E-03   1.941822E-02   1.291525E-02   2.427389E-01   4.025355E+00   4.494852E+00   4.183904E+00   1.010906E+01   7.009613E+00   1.285693E+01   1.397033E+00   1.177379E+01   2.921027E+01   5.633225E+01   1.355287E+02   6.737996E+02   2.456787E+02   3.897552E+01   1.766464E+01   3.676277E+01   4.086379E+01   5.785954E+00   7.379937E+00   6.276723E+00   2.803980E+01   1.730293E+00   1.275525E+00   4.634778E-01   4.859899E-01   2.168689E-01   3.382119E-01   2.615969E-01   4.437615E-01   1.043985E+00   3.156045E-01   4.001772E-02   4.642079E-02   2.320427E-01   1.059769E-01   4.646941E-02   6.786696E-02   5.297381E-02   4.717119E-02   2.024892E-01   1.310384E+00
   1.549066E-01   4.054922E-01   1.080679E-01   7.011884E-02   4.561547E-02   6.456944E-02   1.379267E-01   3.129246E-02   1.264067E-01   1.508529E+00   1.884193E+00   5.320092E+00   1.596891E+01   6.273997E+00   1.523805E+00   1.308274E+00   4.624506E+00   1.475347E+01   1.727584E+01   1.949091E+02   2.213137E+02   2.813680E+02   9.116295E+01   5.951533E+01   1.578662E+02   9.399830E+01   1.283390E+01   7.190443E+01   8.527976E+00   4.944501E+00   3.448030E+00   6.268190E-01   1.420607E+00   3.027790E+00   2.727958E-01   7.340767E-01   1.436855E-01   5.231679E-02   2.261888E-01   3.944236E-01   1.047377E-01   3.194466E-01   6.082753E-02   9.554452E-02   8.872551E-03   3.121668E-02   3.110294E-02   1.204190E-01   3.297348E-01   2.731076E-01
   3.138796E-01   1.981034E-01   2.609563E-02   1.029728E-01   1.251610E-02   1.749293E-02   1.086231E-02   1.194234E-01   1.601408E+00   1.225225E+00   5.523297E+00   1.739241E+00   6.840507E+00   1.690255E+00   6.031034E-01   1.211314E+00   9.237298E+00   2.820876E+01   5.112550E+01   9.051456E+02   7.664776E+02   9.797349E+02   9.762566E+01   7.765015E+01   6.646704E+01   1.092358E+02   1.026574E+02   2.150285E+02   1.121128E+02   1.509372E+02   6.663707E+00   5.758527E+00   2.758896E+00   4.285941E+00   3.142123E-01   5.437785E-01   2.946228E-01   4.081084E-01   2.420619E-01   9.209391E-02   3.723899E-01   3.280637E-01   2.593806E-02   2.859589E-02   6.689358E-03   8.813757E-03   3.211374E-02   3.604002E-02   7.646464E-02   6.152209E-02
   2.754094E-02   3.481710E-02   1.834248E-02   1.410513E-02   6.098200E-03   9.866971E-03   3.735746E-02   2.174761E-01   8.449254E-01   1.235026E-01   4.413968E-01   5.304731E+00   4.264354E+00   8.691875E-01   1.110101E+00   4.453219E+00   1.149280E+01   8.351869E+01   1.242382E+02   1.016590E+03   2.098712E+02   3.816162E+02   3.034252E+02   1.568373E+02   5.209229E+01   4.702168E+01   1.301368E+02   3.018045E+02   2.253081E+02   5.358942E+02   3.536685E+02   1.630439E+01   1.637291E+01   3.379690E+00   2.107595E+00   2.877910E+00   9.661454E-01   2.704118E+00   2.731654E+00   3.444919E-01   1.592223E+00   6.173242E-01   1.074111E-01   4.720457E-02   4.102737E-02   3.774435E-02   9.898298E-03   5.440214E-02   7.921682E-02   3.798132E-02
   1.781376E-02   8.251281E-03   9.725169E-03   6.856219E-03   2.898676E-02   2.657435E-02   3.954452E-02   3.598754E-01   8.604109E-01   6.929231E-02   1.981415E-01   5.756910E-01   5.480101E-01   1.483526E+00   1.048790E+00   4.284515E+00   8.643272E+00   1.280929E+01   8.320163E+00   5.522713E+01   7.912327E+01   2.535209E+02   2.321207E+02   2.321132E+02   1.108387E+02   5.590310E+01   1.211260E+02   4.115877E+02   1.044255E+02   4.462379E+02   1.514482E+02   2.995045E+02   3.023197E+01   5.803284E+00   1.247777E+01   5.800757E+00   7.162692E+00   3.192105E+00   3.667000E+00   1.326373E+00   1.595243E+00   1.329276E+00   3.324400E-01   6.648917E-02   2.923754E-02   2.861425E-02   8.486071E-02   1.319921E-01   1.354154E-01   3.517505E-02
   8.802678E-03   2.336244E-02   3.932612E-03   2.175641E-02   3.482580E-02   1.308066E-01   7.122362E-02   7.172002E-02   7.325340E-02   6.537370E-02   6.392247E-02   1.409795E-01   2.217079E-01   2.981614E-01   2.520229E+00   4.788325E-01   3.360845E-01   9.895666E-01   9.395873E+00   9.907249E+01   2.905669E+01   3.896882E+01   9.435226E+01   1.758432E+02   9.690375E+01   1.236274E+02   1.969067E+02   5.295304E+02   3.241829E+02   7.608544E+02   7.507524E+02   6.661094E+01   7.394384E+01   6.119536E+01   3.508353E+00   1.448525E+00   4.347643E+00   1.593410E+00   2.364431E+00   1.430355E+00   6.591713E-01   7.694582E-01   1.702912E-01   5.069303E-02   1.328465E-02   5.223688E-02   5.347919E-02   2.074914E-01   4.912371E-02   9.655609E-03
   7.250766E-02   1.967978E-02   4.310245E-02   4.359834E-02   1.972352E-01   7.273964E-02   8.335000E-02   4.945053E-03   5.899328E-03   3.516145E-03   3.363311E-02   4.483629E-01   2.611122E-01   3.417243E-01   4.723733E-01   4.915684E-01   1.848721E+00   9.901045E-01   4.313615E+00   2.479377E+01   1.211709E+02   1.388633E+02   6.759402E+01   2.403795E+02   1.674202E+02   3.113964E+01   1.177017E+02   5.479719E+02   1.361028E+03   3.761674E+03   1.648621E+03   2.061801E+02   1.377563E+01   2.952845E+01   8.633261E+00   2.414768E+00   1.044357E+00   3.830798E+00   2.057669E+00   1.427659E+00   2.748139E+00   3.408319E-01   1.197615E-01   4.777449E-02   7.658369E-02   2.689033E-01   8.629883E-01   4.869023E-01   1.922093E-01   3.155731E-01
   2.254224E-01   1.757270E-01   2.995928E-01   1.992226E-01   2.837201E-01   8.333177E-02   2.665564E-02   2.006196E-02   8.298649E-03   1.337732E-02   9.451701E-02   1.180037E-01   1.354556E-01   3.227859E-01   1.394554E+00   9.536605E-01   1.071341E+00   1.251003E+00   7.160921E-01   7.319605E+00   5.101950E+01   5.496080E+01   8.681413E+01   2.372228E+02   1.108508E+02   3.161560E+02   6.399618E+02   1.315700E+02   2.564879E+02   4.392719E+02   2.073437E+03   8.247043E+01   1.015339E+01   6.605760E+00   1.681287E+00   2.393438E+00   6.568192E-01   2.186635E+00   1.583359E+00   8.712137E-01   5.687950E-01   6.739262E-02   5.438239E-02   4.021101E-02   3.187540E-02   6.402150E-01   6.680310E-01   3.844098E-01   7.444438E-01   8.958302E-02
   9.908393E-01   7.292880E-01   1.134470E-01   1.539999E-01   2.923711E-01   2.668291E-02   1.510710E-02   7.317004E-03   2.840497E-02   1.657844E-02   1.340691E-01   4.122360E-02   3.778298E-02   3.671085E-02   3.414488E-02   6.064155E-01   7.897539E-01   2.348274E+00   1.143000E+00   3.508856E+00   2.680307E+01   1.362130E+01   6.346724E+01   6.117223E+02   5.850457E+02   1.113978E+03   1.617636E+03   2.678131E+02   2.002098E+02   1.721619E+02   2.257565E+02   2.989765E+01   5.904587E+00   9.027331E+00   2.010464E+00   8.143348E-01   2.038640E+00   4.297194E+00   3.543964E-01   4.620908E-02   4.640003E-02   1.042971E-01   5.966244E-02   3.664014E-02   7.326711E-02   2.131924E-01   3.357669E-01   6.297108E-02   1.007071E-01   3.385554E-02
   5.052975E-01   6.278498E-02   7.738518E-02   5.920839E-02   1.415245E-02   1.564994E-02   9.369370E-03   9.648493E-03   1.716042E-02   1.054046E-02   2.979154E-02   1.298042E-02   3.155264E-02   1.074711E-01   6.863721E-02   4.722841E-02   1.352188E-01   4.749371E-01   4.071549E+00   3.748603E+00   1.227564E+01   3.485653E+01   3.207861E+02   5.268129E+02   3.482124E+02   9.039438E+02   4.165349E+02   2.022400E+02   7.387274E+02   1.779634E+02   1.363158E+02   1.226935E+01   1.449514E+01   6.412068E+00   1.037846E+01   4.212231E-01   5.513645E-01   4.231612E-01   9.350738E-02   5.209598E-02   1.612351E-02   6.219215E-03   4.167061E-02   3.157425E-01   3.641860E-01   2.548392E-01   7.212067E-02   2.695299E-02   1.862243E-02   6.778078E-02
   5.523712E-01   8.112984E-02   8.722321E-02   8.734679E-02   4.504425E-02   2.437432E-02   8.761698E-03   3.913162E-03   1.130588E-02   2.441410E-02   3.641781E-02   2.124838E-02   2.971102E-02   2.372763E-01   3.173970E-01   3.299521E-01   5.624349E-01   6.221167E-01   1.334516E+00   2.790976E+00   1.294835E+02   1.739721E+02   2.334573E+02   1.139937E+02   2.414955E+02   2.448497E+02   2.340597E+03   6.481219E+02   1.717109E+03   2.515745E+02   2.064677E+02   4.564461E+01   2.221577E+01   5.261598E+00   6.430600E-01   2.341186E-01   3.808718E-01   2.631711E-02   3.032361E-02   1.137693E-02   6.860142E-03   1.574891E-02   1.371623E-01   2.512184E+00   3.233077E-01   7.476271E-01   5.365227E-02   8.943860E-02   8.445957E-02   2.891913E-02
   3.961318E-01   8.386577E-02   1.229756E-01   1.255815E-01   5.164395E-02   3.184076E-02   2.514040E-03   1.488073E-03   6.898175E-03   3.063360E-02   5.306426E-02   7.549342E-02   5.485505E-02   6.901760E-01   1.141929E+00   4.954574E-01   8.748482E-01   2.945256E+00   8.531173E-01   3.836780E+00   2.057386E+02   6.107208E+02   1.201514E+02   8.819933E+01   4.619814E+01   1.109690E+02   6.173460E+02   2.805300E+02   6.190590E+02   1.035163E+02   9.856058E+02   4.028538E+01   2.637116E+00   4.245516E+00   1.273925E+00   2.048216E-01   1.480459E-01   1.240975E-01   1.695540E-01   4.801711E-02   1.545328E-01   1.516342E-01   2.368142E-01   3.936071E-01   1.886895E-01   3.749002E-01   3.031768E-01   2.159268E-01   4.958059E-01   1.195800E-01
   4.118259E-01   2.366917E-01   4.124336E-01   3.570862E-01   3.088214E-01   4.103021E-02   1.497761E-02   1.589128E-02   5.087026E-02   4.166561E-02   4.884540E-02   8.425482E-02   4.707309E-02   4.794135E-01   4.222578E+00   1.086931E+00   1.984439E+00   1.412318E+00   8.500018E-01   1.301616E+00   4.228453E+01   1.601538E+02   9.740147E+01   1.269182E+02   2.950273E+01   6.041877E+01   1.073448E+02   1.493788E+02   7.103410E+01   4.650599E+01   1.815864E+02   1.353399E+02   1.745591E+01   5.725672E+01   1.806016E+00   5.457141E-01   3.112155E-01   9.718279E-01   9.167780E-01   3.215531E-01   6.634405E-01   2.797554E-01   3.041584E-01   9.529781E-02   3.194869E-01   2.534790E+00   5.954013E+00   4.211318E-01   4.722556E-01   1.277672E-01