# UPW package for  MODFLOW-NWT, generated by Flopy.
        55    -1E+30         0         0 
         1
         0
   1.000000E+00
         0
         0
INTERNAL               1  (50E15.6) -1 #hk layer 1                    
   1.541815E+00   3.230302E-01   3.194066E-01   2.205262E-01   3.966400E-02   2.638911E-01   2.811227E-02   1.959711E-01   5.222674E-02   2.479338E-02   1.115891E-02   1.394462E-02   3.681454E-03   1.365530E-03   4.746068E-02   3.694714E-02   6.697390E-02   1.264018E-02   2.676639E-02   7.937211E-03   9.298697E-03   3.099670E-02   3.251504E-02   1.258659E-02   4.100894E-02   4.347277E-02   2.043871E-02   2.282963E-03   3.941903E-03   5.499724E-02   2.072368E-03   1.286787E-02   2.584567E-01   1.778315E-01   5.365259E-03   2.104953E-02   1.939453E-01   1.384721E-01   1.578434E-01   1.897867E+00   7.079761E+00   5.689213E+00   6.937737E+01   4.555653E+01   1.250920E+02   7.414301E+02   3.886981E+00   1.081109E+01   6.749393E+00   1.286868E+00
   3.749460E+01   2.169894E+00   1.208324E-01   1.743306E+00   6.059276E-01   1.347777E-01   1.115867E-01   2.771924E-01   4.165883E-01   1.284430E-02   3.562614E-02   1.588505E-02   1.207103E-02   1.232257E-03   2.605691E-03   9.100446E-03   1.545427E-02   9.840692E-03   2.396974E-02   8.907124E-03   2.424543E-02   1.157514E-02   1.822270E-01   3.127021E-02   1.469753E-02   2.454541E-03   1.692371E-02   1.553186E-02   1.559228E-02   2.158593E-02   4.688964E-03   5.174443E-03   1.486751E-01   2.567392E-01   3.725865E-03   6.152783E-03   8.512149E-03   4.721994E-02   2.030339E-01   1.279588E+00   1.055418E+00   1.048344E+01   7.084783E+01   2.209713E+01   3.075280E+02   1.082183E+02   6.004160E+01   4.807414E+00   3.216417E+01   6.009020E+01
   2.550826E+00   1.442253E+00   3.300659E-01   2.544309E-01   6.376376E-01   7.705029E-02   2.114504E-02   1.533807E-01   1.621926E-01   6.164488E-02   1.337901E-02   1.159174E-02   9.991257E-03   2.678728E-03   3.210863E-01   4.962841E-02   5.401886E-02   2.301152E-02   3.128869E-03   6.766588E-03   1.728289E-01   6.563742E-02   1.786044E-01   1.117853E-01   8.138102E-03   1.317205E-01   2.803395E-02   2.203870E-01   7.585786E-02   8.253420E-02   1.011156E-02   7.617867E-02   9.937894E-02   2.453124E-01   8.988976E-03   1.594606E-03   7.076261E-03   7.071982E-02   1.150059E-01   3.937794E-01   2.248108E+00   2.319405E-01   1.495105E+01   3.075052E+01   5.627745E+02   1.002543E+03   5.994302E+01   9.271586E+01   3.089802E+01   1.914408E+01
   8.997574E+00   3.585973E-01   4.809293E-01   6.606951E-02   2.827597E-01   2.382791E-01   2.917905E-01   4.507025E+00   1.535098E-01   6.746618E-02   3.510459E-02   3.738384E-02   7.623295E-03   7.139074E-02   1.880594E-01   3.023926E-02   2.140749E-02   1.976133E-02   1.037878E-02   1.480354E-02   1.735159E-01   8.543281E-02   2.007978E-01   1.093454E-01   8.007560E-02   9.687795E-02   3.528370E-02   5.052943E-02   6.526434E-02   1.372250E-01   5.587167E-01   3.035820E-01   4.744857E-01   2.161362E-01   5.902580E-03   3.939562E-03   1.180259E-02   1.624958E-02   4.375221E-02   1.145646E-01   3.432883E-01   2.998611E-01   5.232161E-01   9.176476E+00   6.340757E+02   1.016224E+02   6.338404E+00   2.974732E+01   1.951792E+01   2.751029E+00
   1.386803E+00   3.019168E-02   1.268052E-01   3.323535E-01   2.112132E-01   3.245026E-01   3.920999E-01   4.895044E+00   9.211189E-01   1.824067E-01   2.571009E-01   1.331567E-02   3.394382E-03   3.874836E-02   1.833926E+00   5.220500E-02   7.860538E-02   1.017042E-01   1.818498E-02   5.807283E-03   2.939683E-01   2.214539E-01   7.845170E+00   3.841698E+00   1.835191E-01   2.246804E-01   3.514927E-01   5.472894E-01   1.431592E+00   1.414473E-01   4.011114E-01   5.217826E+00   9.829286E-02   2.394816E-01   3.547679E-02   4.289621E-02   7.192496E-02   3.338891E-02   5.661763E-02   1.885787E-02   4.610673E-02   2.288930E-01   6.096560E-01   2.061703E+00   3.586791E+01   4.665445E+01   2.017146E+01   3.546106E+01   4.868033E+01   4.634109E+00
   4.029732E+00   7.349042E-02   3.613285E-01   1.579233E+00   1.077624E+00   2.358846E-01   3.243512E-02   3.615459E-01   1.459048E+00   1.560977E-01   1.034206E-01   2.655461E-01   2.362577E-01   2.434536E-01   4.211076E-01   6.135462E-01   1.765236E-01   9.079211E-02   1.226747E-02   2.852728E-02   6.881508E-01   9.761959E-01   4.582036E+00   1.527686E+00   8.775325E-01   1.796072E+00   6.865928E+00   4.422479E+00   3.485338E+00   3.370737E+00   2.507015E+00   2.439123E+00   1.072793E+00   1.818683E-01   4.925889E-02   1.330692E-01   6.124108E-01   3.594355E-02   6.387826E-01   1.613411E-01   2.057833E-01   3.639663E-01   1.075185E-01   1.311684E-01   4.136868E+00   7.338677E+00   1.841029E+01   6.059596E+00   1.552372E+01   5.763296E+01
   9.430714E-01   3.341211E-01   7.058261E-01   5.699234E+00   8.563522E-01   4.168166E-02   1.654602E-02   8.635695E-02   4.908555E-02   9.478968E-01   1.206351E-01   4.177410E-02   9.854832E-01   8.802289E-01   3.790714E+00   6.740119E-02   1.296322E+00   1.565651E-02   3.083418E-02   4.368451E-01   5.019456E+00   5.238292E+00   2.295540E+00   2.527106E+01   2.008511E+00   1.240756E+01   8.382219E+00   6.633461E+00   5.452405E+01   4.072345E+01   8.148152E+00   1.002650E+01   6.203259E+00   3.608993E+00   1.251838E+00   4.381064E-01   1.817502E+00   3.136413E-01   1.726306E-01   1.005847E-01   8.686680E-02   1.759409E-01   8.659844E-02   1.258792E-01   6.111884E-01   4.092223E+00   2.468160E+00   2.565188E+00   1.250484E+01   5.374364E+01
   6.622705E+00   5.060279E+00   2.519744E+00   2.341241E-01   1.697710E-01   3.795082E-02   4.079487E-02   1.062262E-01   1.589221E-01   6.524475E-02   7.268035E-02   6.351636E-02   2.663341E-01   5.914611E-01   9.281414E-01   1.206004E+00   3.875478E-01   5.925961E-02   8.543501E-01   1.058790E+00   6.687847E+00   5.444428E+00   3.072621E+00   1.122788E+02   3.227549E+01   2.716891E+02   9.072993E+01   6.199458E+01   6.240197E+01   6.649091E+01   3.331660E+00   9.852495E+00   1.087256E+01   1.421223E+00   1.017016E+00   9.851078E-01   2.371247E-01   5.890751E-02   2.809578E-01   4.176059E-01   2.491309E-01   4.135565E-01   7.932295E-01   4.735723E-01   1.205634E-01   6.323097E-01   3.001221E+01   1.643885E+01   4.992461E+01   1.094866E+01
   4.591895E+00   8.544916E-01   5.078503E-01   4.229090E-01   9.810514E-01   2.314096E-01   3.680143E-02   8.625402E-02   1.740340E-01   9.697850E-02   1.044965E-01   2.047348E-01   9.112396E-02   4.477828E-01   3.350646E-01   4.671622E-01   1.463112E+00   2.165386E-01   2.606324E+00   8.665551E-01   4.431601E+00   5.668637E+00   1.420411E+01   1.038333E+02   1.358904E+02   1.895612E+02   2.416749E+03   3.856266E+01   3.017022E+01   4.724921E+01   7.794519E+00   4.518700E+01   2.674986E+00   1.135176E-01   1.460680E+00   3.169272E-01   8.715145E-02   2.114200E-01   3.328835E+00   6.705405E+00   1.034911E+01   5.469653E+00   3.613043E+00   3.529623E-01   4.900041E-01   3.202695E+00   9.983690E+00   1.807166E+00   2.436740E+00   1.385329E+00
   1.712096E+00   8.179994E-01   2.653958E+00   2.603595E+00   4.168419E+00   3.550419E-01   1.002957E-01   1.152384E-01   1.553237E-01   2.311846E-01   2.333459E-01   8.421016E-01   1.505244E+00   2.805220E+00   3.785939E+00   4.435459E+00   3.262538E-01   4.778134E+00   1.826669E+00   8.162192E+00   1.216173E+01   1.749950E+00   3.513142E+01   1.488572E+01   3.142469E+01   5.730817E+01   1.511438E+01   2.126158E+00   1.678991E+01   2.440378E+01   2.787030E+01   3.398634E+01   1.912692E+01   1.581715E+00   9.426185E-01   2.031696E+00   9.927313E-01   2.132086E+00   1.575983E+00   5.157997E+00   4.040164E+00   2.405583E+01   3.253031E+00   1.057804E+00   9.535571E-01   5.847523E-01   1.000169E+00   1.678458E-01   1.073623E-01   2.931117E-01
   2.425748E+00   6.286932E+00   2.619067E+00   5.041028E-01   3.769114E-01   1.780094E-01   9.530000E-02   1.138393E-01   4.150680E-02   5.787949E-02   7.505952E-01   3.444207E-01   1.943133E-01   1.005059E+00   5.646402E+00   1.913697E+01   3.321456E+00   2.414745E+00   1.036761E+00   4.924865E+01   5.913630E+00   1.972788E+01   5.661620E+01   1.479025E+01   3.399361E+01   4.144188E+01   2.141279E+00   5.090170E+00   1.691677E+01   4.615153E+00   6.923748E+00   1.475306E+01   3.226344E+00   5.470347E-01   7.386289E-01   3.183175E-01   4.329964E-01   1.090655E+00   2.012648E+00   1.241867E+00   1.225173E+01   3.092664E+00   3.770287E-01   6.584078E-01   6.897709E-01   1.283118E-01   4.473262E-02   2.828055E-02   6.222531E-02   1.012670E-01
   9.019697E-01   1.318767E+00   1.425106E+00   3.920345E-01   1.134014E-01   7.757533E-02   2.140731E-02   5.457682E-03   4.415445E-02   3.518303E-02   1.643962E-02   4.132886E-02   3.942568E-01   7.502278E-01   7.630508E-01   6.645507E+00   1.153318E+00   3.261436E+00   5.479519E+00   2.803291E+01   2.779273E+00   2.224930E+01   1.043622E+01   3.841317E+00   9.004364E+00   1.147349E+01   1.216036E+00   1.268026E+01   1.033626E+02   4.317253E+00   3.659621E+00   1.818460E+00   3.426837E-01   1.100280E+00   2.534857E-01   1.887592E-01   2.138523E+00   1.119121E+00   8.084267E-01   3.320199E+00   6.076697E-01   5.212201E-01   6.189582E-01   7.889739E-01   1.676476E-01   3.271727E-01   3.428198E-01   3.867385E-01   3.465208E-01   1.220214E-01
   1.144091E+00   1.078636E+01   4.265655E+00   9.955941E-02   4.108024E-02   2.587533E-01   1.028686E-02   5.136102E-03   8.494883E-03   9.711421E-03   2.099758E-02   5.981163E-02   6.622548E-02   2.539894E-01   7.639195E-01   5.362723E+00   1.824679E+01   8.811330E+00   1.131491E+01   9.741257E+00   1.162361E+01   2.894352E+01   1.355140E+01   2.179791E+00   2.790148E+00   6.585122E+01   3.587652E+00   1.508979E+01   9.406015E+00   5.572330E-01   1.161942E-01   3.127158E-01   1.222953E-01   6.258866E-01   4.391886E-02   1.298522E+00   8.548951E-01   1.051409E+00   4.191366E+00   9.295833E-01   4.473745E-01   2.958971E-01   7.283618E-01   1.542363E+00   2.129797E+00   3.771095E+00   4.132108E-01   1.579823E-01   5.754381E-01   2.393651E-01
   3.975820E+00   5.664435E+00   2.438073E-01   2.214600E-02   8.775761E-03   4.632420E-02   2.252443E-03   7.168857E-04   1.690048E-02   1.763916E-02   2.001191E-03   1.522852E-02   6.547666E-02   2.100648E-01   2.036336E+00   7.143117E+00   5.535352E+01   1.348656E+02   4.406141E+01   1.409731E+01   8.054832E+00   1.126675E+01   3.766313E+00   3.386157E+00   2.410382E+01   2.636557E+00   1.197144E+01   1.844314E+01   1.253998E+00   7.370197E-01   1.044035E+00   6.454024E-01   1.731545E+00   4.375020E-01   1.442816E+00   6.897564E+00   4.242544E-01   4.494516E-01   4.519286E-02   9.761044E-02   1.980332E-01   3.931842E-01   4.349848E-01   1.590063E+00   5.186088E+00   4.023355E+00   3.901685E-01   9.245441E-01   8.094187E-01   2.469758E-01
   1.571711E+00   2.544641E+00   3.703124E-01   8.354778E-02   3.140391E-02   2.550749E-02   2.803904E-02   3.082771E-03   2.522299E-02   1.486059E-01   5.027328E-03   2.211566E-02   1.955747E-01   1.172369E+00   2.751627E+00   3.541239E+00   3.681536E+00   7.321474E+01   8.928234E+00   9.714550E+00   4.057573E+00   5.404469E+01   6.927493E+00   8.859208E+00   1.129174E+02   8.702803E+02   4.061658E+01   2.082159E+01   2.875167E+00   5.322716E+01   3.297196E+01   3.043767E+00   9.534225E+00   1.150860E+00   2.014982E+00   3.007413E+00   9.020833E-01   7.935445E-01   8.383429E-02   1.203165E+00   1.499502E-01   4.866741E-01   2.813274E+00   1.558778E+01   1.034855E+01   5.383237E+01   9.413429E+00   1.434869E+00   2.683033E+00   7.897194E-01
   1.777187E+00   8.708240E+00   4.965674E-01   1.895957E+00   8.643343E-02   3.184821E-02   1.205798E-02   4.229175E-03   1.081702E-02   4.813959E-02   2.974346E-02   2.109859E-02   4.222175E-01   5.694616E-01   9.056974E-01   8.607747E-01   1.006971E+00   6.786211E+00   1.399404E+00   8.463385E-01   1.798929E+01   8.047529E+00   1.677282E+01   5.010672E+01   4.048247E+02   3.539578E+02   1.557206E+03   6.324796E+02   9.259295E+01   4.995993E+01   5.717216E+01   1.274874E+02   1.701662E+02   1.548680E+01   6.013288E+00   3.529292E+00   1.128582E+00   2.211175E+00   6.009308E+00   6.656259E-01   4.075643E-01   2.976168E+00   5.501482E-01   5.363443E+01   5.398134E+01   7.427071E+01   9.993762E+00   7.311737E+00   2.967580E+00   7.449644E-01
   8.904733E-01   9.480862E+00   4.147012E+00   1.734812E+00   2.700433E-01   4.380565E-03   5.590945E-02   6.859525E-02   1.106675E-01   8.137146E-02   2.296414E-01   1.094300E-01   2.938239E-01   1.511449E+00   2.279494E-01   1.047083E+00   2.173206E+00   3.890820E-01   8.315793E-02   5.199116E-01   4.538502E-01   5.975536E+00   2.256341E+02   6.244332E+01   6.259038E+02   1.297020E+03   3.367477E+02   4.427719E+02   1.421351E+02   4.228358E+02   3.417401E+02   6.110245E+02   2.654906E+01   8.214231E+00   7.640527E+00   4.398448E+00   1.948623E+01   1.588670E+01   2.183678E+02   1.154585E+02   9.020691E+01   4.060791E+00   2.208574E+00   7.412931E+00   4.452292E+00   5.179039E+00   6.530514E+00   5.021343E+01   2.094556E+01   3.037462E+00
   1.594970E-01   6.036237E-01   9.770128E-01   3.381897E-01   2.332352E-01   1.806421E-01   7.324883E-02   1.244376E+00   4.116606E+00   2.336162E+00   6.235336E-01   1.546198E-01   6.376155E-02   1.153466E-01   1.693674E-01   3.609668E+00   9.937893E-01   2.081304E+00   2.024419E-01   2.458437E-01   2.295964E-01   2.586233E+00   7.434760E+01   2.817985E+01   7.506786E+01   3.741756E+02   5.055605E+02   4.118689E+01   8.841786E+01   6.487766E+01   2.612719E+01   1.233558E+02   2.133735E+01   1.407853E+00   2.384325E+01   1.642987E+01   7.316604E+00   2.879009E+01   2.293969E+02   2.011485E+03   1.599480E+02   2.006883E+00   8.318322E-01   7.328594E-01   5.791537E-02   1.867163E+00   1.359130E+01   1.499450E+01   9.423785E-01   2.932828E+00
   3.306652E-02   2.116516E-02   1.477017E-01   9.831449E-03   3.416437E-02   1.558842E-01   7.314786E-01   3.396073E-01   2.848189E+00   5.004173E-01   2.703736E+00   1.393359E+00   1.250460E-01   3.850387E-02   2.460377E-01   1.052254E+00   4.340791E-01   2.146851E+00   6.560852E-02   2.926290E-01   2.543414E+00   2.354557E+00   2.260233E+00   6.060874E+00   3.076476E+01   3.421685E+02   9.481170E+01   4.863756E+01   1.490247E+02   3.893136E+01   2.666624E+01   4.518674E+01   1.097402E+01   4.094227E+00   3.111359E+00   6.703452E+01   6.490621E+01   8.023616E+01   6.229261E+02   5.315850E+03   4.262678E+02   1.539714E+00   4.622737E+00   2.651594E+00   2.155892E-01   5.348469E-01   2.859397E+00   5.091861E-02   1.493236E-01   1.139599E-01
   2.058864E-02   3.909750E-02   1.180577E-02   6.822423E-03   1.173238E-02   9.143716E-02   2.716755E-02   5.623293E-02   2.873380E-01   4.450636E-02   9.117339E-01   2.135179E-01   1.195505E-01   2.124291E-02   6.431679E-01   1.008107E+00   4.703277E-01   1.174690E-01   3.188707E-01   9.249119E-01   2.138905E+01   1.384984E+01   2.571914E+01   2.724356E+01   1.602186E+02   1.699408E+02   8.839733E+01   3.395579E+01   2.491629E+01   2.552558E+01   3.235756E+01   1.180184E+01   8.550170E+00   4.400753E+00   3.759853E+01   7.764055E+02   6.949308E+02   6.073233E+02   8.711765E+02   3.883867E+02   1.011330E+02   1.835598E+01   4.162224E+00   6.220163E+00   2.435592E+00   9.956693E-01   2.316674E-01   1.396138E-01   7.045800E-01   4.387915E-02
   4.022105E-02   1.438787E-01   4.288675E-02   9.242730E-03   3.871158E-02   1.306762E-01   3.067926E-03   5.451158E-02   2.628748E-02   2.536862E-01   2.640016E-01   4.891435E-02   1.523557E+00   3.123486E-02   4.551862E-01   2.465168E+00   1.209651E+00   2.885232E-01   7.945815E-01   9.689108E+00   4.154985E+02   4.388237E+01   1.120826E+02   4.526768E+01   4.694847E+01   1.237548E+02   2.041315E+01   4.657255E+01   2.960778E+01   3.106634E+02   1.113214E+02   4.510758E+00   6.311162E+00   9.924052E+00   7.936314E+01   7.583404E+02   2.362835E+02   1.531806E+02   2.433776E+02   1.539740E+02   4.685378E+01   1.053924E+01   1.796452E+01   2.933842E+00   3.369280E-01   8.228001E-01   8.745123E-02   7.924309E-02   6.048290E-03   7.650483E-03
   3.142089E-01   9.195422E-02   1.263862E-01   6.628532E-02   1.186148E-02   5.494297E-04   5.470125E-03   2.014484E-02   5.020513E-02   1.198894E-01   9.087266E-02   1.562119E-01   6.162704E-01   7.208865E-01   9.078372E-02   3.512855E+00   6.099615E-01   5.357522E-01   2.102795E+00   1.319938E+02   1.276711E+03   1.040224E+02   5.537305E+01   5.571534E+01   2.453151E+01   2.076755E+01   1.165476E+01   1.577302E+01   4.967940E+01   2.409943E+01   7.530488E+00   7.951468E+00   1.954735E+00   1.108199E+00   2.100838E+01   2.136561E+02   1.853417E+02   1.099032E+02   1.951007E+02   2.555063E+02   4.023532E+02   3.365679E+01   1.512828E+00   1.559744E+00   2.686384E-01   2.002116E-02   6.075821E-03   3.303729E-02   2.488590E-02   1.902368E-01
   1.710721E+00   2.212148E-01   3.952815E-01   4.675215E-02   6.301781E-03   5.107164E-04   8.084225E-03   8.791409E-02   4.868181E-02   4.507965E-02   7.035376E-02   2.261561E-01   2.782983E-01   5.177597E-02   8.362969E-02   2.547468E-01   3.376854E+00   2.878018E+00   5.417192E+00   7.009487E+02   5.449880E+02   9.543100E+02   5.240423E+02   1.201557E+00   2.975350E+01   3.167517E+00   3.854272E+00   1.353574E+01   8.303132E+01   2.075424E+01   3.827562E+00   5.760327E+00   2.574901E+00   1.642539E+00   2.222443E+00   1.757423E+01   7.268959E+01   1.131753E+02   2.258985E+01   6.166486E+01   2.321291E+01   5.451403E+01   9.542871E+00   7.584754E-01   6.731582E-01   6.723047E-02   3.262772E-02   1.624217E-01   4.465470E-02   8.870856E-01
   2.958629E-01   9.257091E-01   2.802307E-01   4.989383E-02   1.193581E-03   1.113458E-03   7.766560E-04   3.399620E-02   2.616189E-02   2.809435E-02   3.108197E-01   1.495905E-01   5.674481E-01   9.999573E-02   2.657294E-01   9.691942E-01   3.995908E-01   1.062802E+01   1.771355E+02   9.441415E+02   2.431770E+03   1.727593E+03   7.786169E+02   9.604195E+01   2.685398E+02   5.312382E+00   1.903328E+01   7.246683E+01   2.098655E+02   2.310926E+01   1.238489E+01   1.917239E+00   1.387575E+00   7.124153E+00   4.261167E+00   1.438527E+01   5.675972E+00   4.669714E+00   7.046640E+00   2.184189E+00   1.578567E+01   5.249748E+00   3.144588E+00   2.599329E-01   5.744262E-02   1.175869E-02   2.029787E-02   7.986029E-02   6.336330E-01   1.425788E+00
   6.601969E-02   2.624901E-02   1.818851E-01   1.233665E-02   1.772385E-03   1.303122E-04   3.210393E-04   3.308453E-03   1.393811E-02   8.958974E-02   2.736379E-01   1.418031E+00   2.240744E+00   2.103405E-01   2.502172E+00   3.138738E+01   2.363152E+02   3.659148E+01   2.621300E+03   4.118219E+03   6.949895E+03   4.889172E+03   5.875024E+02   9.086539E+01   3.089237E+02   2.776206E+01   1.352418E+02   7.129939E+01   5.527387E+01   3.418426E+00   1.919670E+01   1.242471E+00   4.764080E-01   1.173765E+01   4.510840E-01   2.738699E+00   2.405134E+00   1.447270E+00   7.597560E-01   1.025458E+00   5.619987E+00   2.789472E+00   3.434491E+00   3.768297E-01   1.499408E-02   3.566249E-02   5.427159E-02   4.338506E-01   2.045544E-01   1.312532E+00
   4.931482E-03   2.379420E-02   4.285337E-03   6.939780E-03   9.980841E-05   1.105060E-04   3.292860E-04   1.476459E-02   1.535740E-01   4.070848E-01   1.011742E+00   3.676030E+00   1.276921E+01   9.789975E+00   3.875155E-01   3.942241E+00   1.639706E+02   4.689973E+02   1.952668E+03   5.035949E+02   1.975885E+03   1.395229E+03   1.040100E+02   3.293658E+01   1.250805E+02   2.817203E+02   1.233782E+01   4.712344E+00   2.738201E+01   1.661365E+01   3.680482E+00   7.477617E-01   6.707428E-01   1.765525E+00   2.723030E-01   2.332972E-01   1.407317E+00   6.713467E+01   5.456892E+00   3.831051E+00   7.276260E+00   2.456569E+00   2.801701E-01   3.020582E-01   2.398047E-02   6.696784E-02   1.077793E-02   1.545021E-02   7.193982E-02   3.259799E-01
   3.860939E-02   1.079787E-02   2.433760E-03   2.373469E-03   6.218532E-04   5.939369E-04   8.456019E-04   1.671702E-03   3.323920E-02   5.617324E-01   1.683853E+00   7.951046E+00   1.042462E+01   1.096647E+01   3.287518E+00   5.330432E+00   1.513150E+02   2.858193E+02   3.476405E+02   8.158164E+02   6.035333E+03   2.398162E+03   1.719474E+02   1.170094E+02   2.578926E+02   1.566546E+02   8.162832E+00   1.110026E+01   1.833484E+01   1.058738E+02   7.896701E-01   8.445010E-02   8.301047E-02   1.321505E-02   1.062782E-01   1.637644E+00   1.500800E+00   2.324776E+01   3.498006E+01   3.499510E+00   8.207258E-01   1.489772E-01   1.379993E-01   3.004998E-01   1.746757E-01   1.205293E-02   7.584551E-03   3.033797E-03   1.164221E-02   7.607077E-01
   2.078689E-01   2.227847E-01   1.703147E-02   3.846759E-03   2.035758E-03   5.816275E-03   3.101468E-02   1.817417E-03   1.221827E-02   1.545070E-01   1.152214E-01   2.291004E+00   3.740537E+00   2.382166E+00   2.463066E-01   3.017777E+00   3.473415E+01   2.195355E+02   5.901549E+02   5.354586E+02   8.035927E+02   1.823640E+03   2.232285E+03   1.426795E+03   1.000000E+04   2.406890E+02   8.563229E+01   1.602077E+02   1.847123E+01   6.524259E+00   4.366112E+00   3.019446E-01   4.582786E-01   7.627840E-02   4.200746E-02   7.231850E-01   2.173962E-01   4.981111E-01   1.009873E+01   2.709258E+00   1.359880E+00   6.371738E-01   3.269552E-02   1.881543E-01   1.751119E-01   5.217656E-02   9.699157E-03   4.021594E-02   2.687392E-01   8.103205E-01
   2.775835E-01   1.937198E-02   1.664964E-03   4.332864E-03   1.814383E-04   3.300897E-04   1.408615E-03   1.519714E-02   6.056027E-01   2.113674E-01   2.663665E-01   1.215042E-01   1.204540E+00   5.525873E-01   1.472060E-01   3.797456E-01   1.487758E+00   9.958595E+00   3.356065E+01   7.943917E+02   4.321584E+03   2.602873E+03   1.000000E+04   7.022421E+03   1.778830E+03   3.842030E+03   2.784659E+02   3.790704E+02   2.976960E+02   5.538409E+01   9.366766E-01   5.161332E+00   1.132800E+00   5.284280E-01   1.264832E-01   2.047428E-01   2.896376E-01   9.811743E-01   1.829732E+00   4.189932E-01   5.029396E+00   5.858872E+00   4.756428E-02   5.308517E-02   3.749403E-02   4.399760E-02   7.682903E-02   9.441233E-02   3.062526E-02   5.295093E-02
   4.046974E-02   2.642829E-03   2.180636E-04   9.944044E-05   1.238668E-04   8.833000E-05   4.281220E-03   2.711489E-02   1.710484E-01   4.990323E-03   8.896516E-03   6.901641E-02   7.300952E-01   2.635438E+00   2.839957E-01   7.279390E-01   6.129918E-01   7.664495E+00   9.448192E+00   1.360825E+02   2.618636E+02   8.876273E+02   1.000000E+04   3.891586E+03   2.291437E+02   1.998967E+02   7.758401E+02   7.929187E+02   6.139886E+01   1.146457E+02   1.503242E+02   7.886266E+00   5.059610E+00   1.450063E+00   3.183718E+00   1.605304E+01   6.863068E-01   2.246535E+00   2.854649E+00   2.587788E+00   9.754807E+00   4.019845E+00   5.905446E-01   1.472271E-01   3.005173E-01   1.830666E-01   6.885166E-02   7.708719E-01   7.263246E-01   8.196061E-02
   1.151967E-02   5.046153E-04   2.005329E-04   2.028819E-04   1.033859E-03   4.985656E-04   7.149900E-04   3.145858E-02   1.600658E-01   3.079234E-03   4.799149E-03   2.437795E-02   3.253308E-02   6.142556E-01   4.926687E-01   3.266711E-01   4.016328E-01   1.338212E+00   4.297031E-01   2.210186E+01   1.089643E+02   1.041236E+03   1.310106E+03   1.619414E+03   2.123880E+02   2.507040E+02   1.332590E+02   4.478258E+02   7.133879E+01   9.883063E+01   1.114860E+01   2.117121E+01   6.077641E+00   6.762520E+00   2.437998E+01   1.422955E+01   6.852886E+00   3.279250E+00   7.377567E+00   4.529592E+00   7.953863E+00   6.939671E+00   3.018213E+00   7.669052E-01   3.879729E-01   2.761511E-01   5.079079E-01   1.075958E+00   1.517567E+00   8.050393E-02
   4.525337E-03   6.679821E-03   1.273439E-03   2.594675E-03   7.564200E-03   1.769113E-02   1.155039E-02   1.849576E-02   1.402799E-02   4.947432E-03   8.692145E-04   4.155334E-03   8.895773E-02   4.627037E-01   1.630842E+00   2.595853E-02   1.336632E-02   1.119238E-01   2.072652E+00   1.558045E+01   5.551068E+01   2.133392E+01   5.065444E+01   2.749735E+02   1.095039E+02   2.304998E+02   2.112718E+02   3.131219E+03   6.208078E+02   5.192016E+02   1.566041E+02   2.652111E+01   2.064555E+01   7.472959E+01   6.726025E+00   5.181913E+00   4.931826E+00   1.086735E+00   2.235421E+00   8.414550E-01   2.522910E+00   2.955261E+00   1.191348E+00   7.413870E-01   8.233343E-02   6.700887E-01   3.469340E-01   3.280546E-01   3.096526E-02   1.485263E-02
   8.484252E-02   1.269944E-02   2.267963E-02   2.754075E-02   1.826675E-01   4.544210E-02   2.940412E-02   1.699444E-03   1.429773E-03   6.914026E-04   2.489599E-03   3.252105E-02   6.825251E-02   7.662382E-01   1.062456E+00   1.077574E-01   8.869263E-02   4.584869E-02   5.202129E-01   1.648767E+00   2.443154E+01   2.074571E+01   3.138659E+01   4.112163E+01   3.806158E+01   5.640935E+01   2.062797E+02   1.086141E+03   1.416642E+03   6.585217E+03   3.453772E+02   1.086763E+02   4.402602E+00   9.450875E+00   2.596054E+00   2.797640E+01   6.063406E+00   1.555196E+01   1.364411E+00   2.555388E+00   1.052098E+01   1.848012E+00   3.384529E+00   6.040992E-01   3.563065E-01   1.693108E+00   8.325462E-01   8.925838E-01   5.856264E-02   6.997276E-02
   4.139020E-01   3.158013E-01   1.635813E-01   3.683966E-01   8.163442E-02   4.915915E-02   1.893746E-02   2.310518E-02   4.434435E-03   1.418214E-02   9.372314E-03   1.110784E-02   2.345286E-02   6.173220E-02   2.568350E+00   5.670841E-01   7.787524E-02   2.097870E-02   5.292063E-02   1.308045E-01   4.217800E+00   5.196471E+00   9.891536E+00   1.098359E+01   1.728009E+01   1.776653E+02   3.873496E+02   9.301537E+01   2.833842E+01   2.598371E+01   2.390114E+02   1.654499E+01   6.875700E-01   4.950330E-01   2.714168E-01   2.375825E+00   2.582476E-01   7.557269E+00   8.354154E+00   1.042225E+00   8.152524E+00   1.113836E+00   4.703318E+00   2.041831E+00   4.384214E-01   1.800012E+00   1.063319E+00   6.861121E-01   6.181328E-02   1.848785E-02
   3.749362E-01   7.985155E-02   3.378487E-02   5.992408E-02   8.386742E-02   7.648868E-03   1.288343E-02   7.588631E-03   4.321589E-02   4.861312E-03   4.906726E-02   6.256290E-03   4.981856E-03   4.791492E-03   1.442618E-02   1.273703E-01   6.513620E-02   3.879157E-02   1.755760E-02   1.875601E-02   1.298544E-01   1.727850E+00   7.332905E+00   1.465098E+02   9.495106E+01   1.544807E+03   8.197956E+02   7.935793E+01   4.908020E+01   1.258841E+01   8.253133E+00   8.565813E-01   2.096407E-01   6.848895E-01   1.056261E-01   4.002829E-01   8.171752E-01   1.080172E+00   7.210741E-01   1.100373E-01   5.060731E-01   8.261539E-01   1.247953E+00   4.693438E-01   1.530161E-01   1.398895E-01   1.693222E-01   6.147480E-02   3.197936E-02   4.229572E-03
   4.448630E-02   6.388120E-02   4.890679E-02   8.793278E-03   1.384183E-03   1.438809E-03   7.073432E-03   6.119947E-03   5.302970E-02   1.725937E-02   6.061229E-02   1.888877E-03   5.333667E-03   3.128074E-02   3.084403E-03   2.557194E-03   3.061695E-03   1.203242E-02   3.588464E-02   2.807414E-02   5.243474E-01   2.029829E+00   2.979716E+01   3.700089E+01   1.485752E+02   5.193229E+02   6.566417E+02   5.473447E+01   2.479491E+02   1.812435E+01   1.518872E+01   9.405092E-01   1.103839E+00   9.797766E-01   2.422424E-01   6.260031E-02   1.839633E-02   2.125329E-01   5.906452E-02   1.196159E-01   1.315183E-01   7.227552E-02   5.401124E-01   6.319806E-01   2.855791E-01   1.143886E-01   7.291080E-02   3.779398E-02   1.991357E-02   2.557413E-02
   1.023265E-01   3.726628E-02   5.108034E-02   5.879915E-03   1.055594E-03   1.126932E-03   5.676490E-03   5.409620E-03   9.309486E-02   1.403343E-01   1.269290E-01   8.547455E-03   8.639756E-03   6.086649E-02   4.868804E-02   8.090134E-03   6.920532E-03   3.921260E-03   2.067920E-02   1.792067E-02   1.918411E+00   4.690178E+00   1.016513E+01   1.712724E+01   1.472562E+01   1.487224E+01   3.100392E+03   4.704913E+02   1.772757E+02   6.040637E+01   2.836477E+01   4.969732E+00   8.520550E-01   1.453416E-01   5.943808E-02   3.346077E-02   1.169312E-01   4.643426E-03   3.487411E-02   1.336486E-02   7.604399E-03   1.644592E-01   5.039071E-01   5.724768E+00   1.429444E-01   1.945119E-01   1.004671E-02   1.521391E-02   4.348751E-02   2.666508E-03
   2.976969E-02   9.241138E-03   1.004932E-02   6.768012E-03   5.992892E-03   6.083539E-03   1.826384E-03   3.456060E-03   2.216204E-02   1.039935E-01   6.991045E-02   8.054210E-02   2.202690E-02   7.021232E-02   9.556540E-01   7.425974E-02   9.586552E-02   3.953733E-02   1.450360E-02   4.187607E-01   3.668498E+01   3.631977E+01   2.469600E+01   4.794944E+01   3.991040E+00   7.182303E+00   1.442355E+02   5.820392E+01   5.941776E+02   8.159377E+01   3.369010E+02   5.121432E+00   1.550079E-01   1.148862E-01   2.196747E-02   1.166380E-02   1.642580E-02   7.553604E-02   1.098750E-01   9.951476E-03   8.301646E-02   1.213212E-01   2.476456E-01   1.251199E-01   1.304950E-02   4.943703E-02   1.289362E-02   1.892498E-02   4.997577E-02   2.971275E-03
   6.252511E-02   6.359156E-03   1.581743E-02   2.109821E-02   4.415331E-01   2.242893E-01   1.829096E-01   8.420430E-02   1.676443E-01   2.102941E-01   1.879439E-02   5.609828E-02   5.362212E-03   3.298507E-02   8.909362E-01   5.851445E+00   1.102381E+01   2.488202E-01   1.598459E-01   9.798931E-02   1.304956E+01   3.782694E+01   3.172151E+00   4.653877E+00   4.494163E+00   9.729406E-01   6.844071E+00   2.987228E+01   6.968616E+01   2.281706E+01   2.859218E+02   2.316229E+01   2.952013E+00   1.087676E+00   2.754563E-02   1.336739E-01   7.340215E-02   4.744316E-01   9.607070E-01   2.106868E-02   9.613913E-02   2.089387E-01   2.594712E-02   1.968952E-02   1.420444E-02   1.161502E-01   6.624901E-02   6.943430E-03   2.810248E-02   1.838532E-03