# UPW package for  MODFLOW-NWT, generated by Flopy.
        55    -1E+30         0         0 
         1
         0
   1.000000E+00
         0
         0
INTERNAL               1  (50E15.6) -1 #hk layer 1                    
   7.959177E-01   1.284088E+00   8.115429E-01   1.212498E-01   7.596378E-02   3.262159E-01   9.897429E-02   4.035283E-01   1.312741E+00   4.555205E-01   3.204074E-01   2.171529E-01   1.939751E-01   1.284614E-01   4.138823E-01   4.310404E-01   9.370815E-01   3.840314E-01   3.467021E-01   1.699364E-01   8.600208E-02   3.677321E-02   3.296475E-02   2.442295E-02   3.899733E-02   6.065956E-02   1.282248E-01   4.007914E-02   5.251450E-02   1.138615E-01   4.343143E-02   2.213592E-01   5.470084E-01   3.260973E-01   3.506357E-01   2.161325E+00   4.759069E+00   4.232969E+00   4.869036E+00   1.424280E+01   1.148867E+01   7.328387E+00   4.683645E+01   8.624921E+01   6.252643E+01   1.865878E+02   8.660790E+00   2.589887E+01   1.064576E+01   5.334881E+00
   3.365674E+00   1.723381E+00   1.031616E-01   1.892851E-01   1.287094E-01   7.372851E-02   4.571753E-01   7.989919E-01   2.183664E+00   7.985172E-01   1.033414E+00   3.255442E-01   5.384383E-01   4.743548E-02   5.918572E-02   8.573675E-02   5.509074E-01   4.870841E-01   2.143375E-01   2.940504E-01   2.481162E-01   8.731733E-02   9.471211E-02   5.804202E-02   2.622652E-02   2.496724E-02   2.406989E-01   1.321481E-01   1.569348E-01   1.154007E-01   6.623780E-02   4.516012E-02   9.470346E-02   1.793531E-01   8.079322E-02   4.713895E-01   8.328449E-01   2.098885E+00   7.069486E+00   3.233097E+00   1.652744E+00   1.270325E+01   1.255307E+01   1.986267E+01   1.108042E+02   5.818421E+01   1.062259E+02   2.049564E+01   8.573836E+01   4.330868E+01
   1.552247E+00   4.061584E-01   1.617973E-01   8.172807E-02   1.715537E-01   1.548205E-01   1.256339E-01   1.035465E+00   1.374087E+00   1.151944E+00   2.257159E+00   1.620734E+00   7.693105E-01   1.579080E-01   8.615422E-01   2.265352E-01   6.923573E-01   5.411078E-01   1.130287E-01   1.531719E-01   4.588896E-01   2.001476E-01   4.162535E-01   1.135593E-01   5.740286E-02   2.722087E-01   9.757218E-02   2.751516E-01   1.112593E-01   1.849147E-01   1.005182E-01   9.710351E-02   8.085376E-02   2.388095E-01   9.392140E-02   1.408757E-01   2.454529E-01   7.661504E-01   1.667493E+00   4.268996E+00   5.030737E+00   8.772238E-01   3.551171E+00   1.118229E+01   1.473556E+02   1.375070E+02   2.905828E+01   7.581745E+01   7.978826E+01   5.080119E+01
   4.726723E+00   7.236635E-01   2.266062E-01   4.370367E-02   4.279643E-01   7.379128E-01   1.162707E+00   1.615718E+01   2.113236E+00   1.364694E+00   1.413244E+00   1.712890E+00   2.091006E-01   6.305637E-01   1.244398E+00   8.797740E-01   4.352440E-01   5.777721E-01   1.880124E-01   2.369924E-01   3.623800E-01   1.731702E-01   1.526168E-01   1.881709E-01   9.757625E-02   2.105694E-01   1.065192E-01   4.861359E-02   1.303200E-01   2.178059E-01   2.997532E-01   3.763922E-01   3.160058E-01   2.983666E-01   8.900411E-02   3.117987E-01   1.756123E-01   2.651187E-01   6.677316E-01   1.094521E+00   2.417181E+00   1.471086E+00   1.968898E+00   1.824691E+01   7.236758E+01   2.283762E+01   7.088663E+00   1.629542E+01   2.056067E+01   3.658564E+00
   1.020551E+00   2.000037E-01   3.163793E-01   3.649013E-01   4.531886E-01   1.058407E+00   1.569331E+00   1.368707E+01   9.282217E+00   3.835193E+00   2.212090E+00   9.192559E-01   5.863571E-01   1.116827E+00   2.910086E+00   5.218223E-01   8.693213E-01   8.846900E-01   6.756907E-01   1.315819E-01   7.431795E-01   3.885023E-01   1.221149E+00   5.455359E-01   7.344969E-02   4.777860E-01   1.731427E-01   2.375611E-01   6.459672E-01   2.350493E-01   2.952259E-01   2.068692E+00   2.375022E-01   1.853429E-01   1.382782E-01   3.707006E-01   8.144335E-01   1.371321E+00   3.859969E-01   3.573257E-01   1.923494E+00   3.357112E+00   5.434281E-01   3.163373E+00   6.750597E+00   4.085013E+01   1.219544E+01   7.463511E+00   1.147855E+01   9.771622E-01
   3.499641E+00   5.507007E-01   7.839101E-01   6.112806E-01   6.292337E-01   9.794159E-01   1.485848E+00   2.777289E+00   1.194042E+01   2.010394E+00   2.340347E+00   1.803526E+00   2.608050E+00   1.166998E+00   5.242094E-01   9.864011E-01   1.826521E+00   1.295345E+00   2.936409E-01   2.519012E-01   8.447383E-01   8.650784E-01   1.539644E+00   3.327915E-01   3.572463E-01   9.110857E-01   1.549881E+00   9.893869E-01   5.674891E-01   2.811559E-01   5.999402E-01   7.655421E-01   8.900337E-01   2.434743E-01   1.144850E-01   1.957347E-01   1.354958E+00   7.020893E-01   3.629654E+00   3.152300E+00   4.013147E+00   2.688207E+00   1.113355E+00   6.679605E-01   2.801937E+00   2.766064E+00   1.949970E+00   1.607864E+00   4.063127E+00   1.420460E+00
   1.253331E+00   2.060678E-01   8.689120E-01   6.826386E-01   1.534726E+00   6.247588E-01   4.632505E-01   7.645711E-01   9.308112E-01   8.293984E+00   8.885949E-01   5.198221E-01   1.434386E+00   3.961373E+00   2.627194E+00   6.236328E-01   4.003375E+00   1.348654E+00   4.428040E-01   1.214281E+00   3.812373E+00   2.632396E+00   1.158800E+00   2.999656E+00   1.197593E+00   4.870986E+00   1.251441E+00   6.898328E-01   4.461187E+00   1.659372E+00   8.311886E-01   1.260121E+00   9.630303E-01   3.375242E-01   2.395398E-01   3.234106E-01   1.385685E+00   2.767723E+00   1.937353E+00   3.221220E+00   3.860441E+00   3.042668E+00   2.018827E+00   7.835304E-01   7.177391E-01   2.159156E+00   4.886904E-01   7.114518E-01   3.252873E+00   3.857797E+00
   1.286062E+01   3.294201E+00   1.776764E+00   2.451815E-01   1.612914E-01   6.750056E-01   8.288289E-01   2.007678E+00   4.750075E+00   1.169072E+00   1.401271E+00   2.767755E-01   2.841437E-01   1.416977E+00   2.694297E+00   5.452848E+00   2.151287E+00   1.286172E+00   4.722630E+00   5.187283E+00   1.553593E+01   7.817365E+00   8.334033E-01   3.987721E+00   1.084050E+01   1.339537E+01   4.662364E+00   1.937207E+00   3.221635E+00   6.326595E+00   7.204238E-01   7.970219E-01   2.341794E+00   8.586724E-01   8.529016E-01   3.611859E-01   9.837030E-01   1.328613E+00   3.591136E+00   7.080634E+00   2.528297E+00   2.929503E+00   2.984174E+00   1.923923E+00   6.417599E-01   1.670315E+00   7.632633E+00   8.987149E+00   1.625024E+01   4.248082E+00
   2.565416E+01   2.713696E+00   3.286809E+00   3.921256E-01   2.501155E-01   2.225451E-01   2.374285E-01   1.314076E+00   1.129526E+00   9.531240E-01   6.508269E-01   4.001746E-01   2.922338E-01   2.314382E+00   1.741419E+00   4.705889E+00   4.572374E+00   2.666054E+00   3.422138E+00   1.404285E+00   4.470588E+00   3.356717E+00   3.696258E+00   1.513644E+01   6.619096E+00   7.501946E+00   3.426717E+01   1.892762E+00   3.416030E+00   3.585891E+00   4.729452E-01   3.018449E+00   2.128170E+00   7.504848E-01   6.733256E-01   1.454829E+00   1.042737E+00   1.156486E+00   7.179866E+00   1.712959E+01   4.465616E+00   3.878215E+00   1.938477E+00   9.444718E-01   9.995998E-01   2.803277E+00   5.067072E+00   3.567384E+00   2.211160E+00   1.437021E+00
   1.805612E+01   6.426824E+00   9.859806E+00   1.247017E+00   1.880863E+00   2.151270E-01   1.444678E-01   5.297832E-01   2.830490E-01   6.155534E-01   4.353637E-01   2.299882E+00   1.836376E+00   4.124193E+00   4.453880E+00   1.903654E+00   1.250654E+00   1.908773E+01   1.353708E+01   7.841505E+00   2.573502E+00   6.932309E-01   6.440230E+00   1.003865E+01   3.477281E+00   2.354460E+00   1.712021E+00   9.287935E-01   5.869926E+00   3.840122E+00   2.247340E+00   5.220372E+00   1.029817E+01   2.226335E+00   3.395947E+00   4.002627E+00   7.805426E+00   1.008717E+01   6.695016E+00   9.587113E+00   4.009394E+00   5.115628E+00   4.728465E-01   5.840602E-01   3.950636E-01   3.554297E-01   1.372179E+00   1.172841E+00   5.230976E-01   9.840996E-01
   2.093674E+01   4.108637E+01   1.379505E+01   2.348530E+00   1.071803E+00   6.271172E-01   6.023214E-01   1.657290E-01   3.357174E-01   2.524123E-01   1.298342E+00   9.967287E-01   6.144491E-01   2.506197E+00   9.252346E+00   4.126633E+00   3.770771E+00   5.000196E+00   7.256436E+00   4.439651E+01   2.708120E+00   2.702964E+00   1.339441E+01   8.853602E+00   7.182148E+00   4.277848E+00   1.316340E+00   4.960201E+00   1.325848E+01   3.251927E+00   1.583862E+00   1.625033E+00   1.478116E+00   2.203772E+00   3.735627E+00   3.014652E+00   5.239373E+00   9.859616E+00   6.386131E+00   1.306324E+01   2.337112E+01   2.509735E+00   4.022586E-01   5.120313E-01   1.061366E+00   1.213784E-01   9.057977E-02   1.692822E-01   5.974756E-01   3.832507E-01
   2.488754E+01   2.128640E+01   3.459996E+00   1.131511E+00   4.468087E-01   7.793229E-01   4.509295E-01   9.228576E-02   1.774615E-01   4.600665E-01   2.897612E-01   3.027685E-01   2.947379E-01   1.132457E+00   2.460125E+00   9.412045E+00   1.599501E+00   4.032954E+00   3.069201E+00   7.370570E+00   3.743924E+00   9.646239E+00   5.885217E+00   8.485030E+00   3.368414E+00   1.247063E+00   7.141460E-01   1.537254E+01   4.607536E+01   1.863150E+01   2.850413E+00   7.132875E-01   3.722997E-01   1.470023E+00   7.420579E-01   1.206458E+00   1.436589E+01   1.003703E+01   3.935137E+00   9.519042E+00   2.594209E+00   2.489224E+00   1.653730E+00   1.006010E+00   7.172570E-01   3.625103E-01   2.282305E-01   4.270472E-01   6.735746E-01   2.147839E-01
   3.772020E+01   1.927375E+01   1.379036E+01   1.647658E+00   6.310626E-01   1.818331E+00   3.529876E-01   1.279479E-01   8.772404E-02   3.397737E-01   1.327924E+00   1.018239E+00   7.231418E-01   1.196230E+00   1.194329E+00   4.446775E+00   6.355599E+00   1.934120E+00   2.327037E+00   1.723187E+00   2.126442E+01   3.241946E+01   3.668815E+01   8.405600E+00   3.596880E+00   1.820690E+01   2.670240E+00   1.834855E+01   2.106300E+01   4.163360E+00   9.833993E-01   4.315173E-01   4.422761E-01   1.034225E+00   5.512105E-01   7.953467E+00   6.356336E+00   2.929591E+00   8.491940E+00   2.973708E+00   2.934617E+00   1.202623E+00   1.529141E+00   8.628084E-01   2.029253E+00   2.167438E+00   3.774864E-01   2.582020E-01   1.178467E+00   1.254102E-01
   4.077675E+01   1.142896E+01   1.100104E+00   6.512774E-01   4.956565E-01   1.065246E+00   5.882303E-01   1.326871E-01   5.352994E-01   7.736285E-01   3.314268E-01   4.727763E-01   4.005506E-01   4.023345E-01   1.249649E+00   5.527330E-01   4.143267E+00   1.386395E+01   3.613756E+00   8.282685E+00   1.200734E+01   5.200634E+01   4.252769E+01   6.592259E+00   1.941363E+01   9.589135E+00   6.468081E+00   2.809241E+01   9.002241E+00   6.487454E+00   1.301775E+00   1.643435E+00   2.116570E+00   1.517897E+00   5.535839E+00   1.334319E+01   2.572366E+00   1.151550E+00   5.454462E-01   1.017389E+00   9.203681E-01   2.138294E+00   9.932525E-01   8.495429E-01   4.975400E+00   1.299042E+00   2.549239E-01   6.531898E-01   1.066471E+00   3.102647E-01
   1.814665E+00   4.068768E+00   1.252475E+00   3.732710E-01   3.588836E-01   2.068743E-01   6.220624E-01   2.745340E-01   1.900961E+00   1.675052E+00   1.967674E-01   6.334916E-01   1.459269E+00   7.599915E-01   5.825794E-01   4.351934E-01   6.446264E-01   5.728259E+00   3.856607E+00   8.586176E+00   2.017434E+01   7.752880E+01   3.664393E+01   3.789492E+01   1.523401E+02   1.326285E+02   1.198508E+01   2.374142E+01   1.254471E+01   1.581866E+01   1.721457E+01   3.994687E+00   1.866785E+01   6.518150E+00   7.734641E+00   6.279070E+00   2.958269E+00   1.340664E+00   3.980237E-01   8.261619E-01   1.109819E+00   1.574611E+00   2.342648E+00   1.152497E+01   3.140444E+00   4.710696E+00   1.031860E+00   4.198107E-01   1.620444E+00   5.945407E-01
   2.335222E+00   2.362984E+00   5.975690E-01   1.245341E+00   1.725675E-01   1.587860E-01   4.889800E-01   3.136857E-01   5.643241E-01   3.832177E-01   1.388029E-01   1.071698E-01   6.250691E-01   6.226856E-01   4.273241E-01   4.636873E-01   7.030145E-01   1.023225E+00   2.028923E+00   1.282133E+01   5.041949E+01   3.993424E+01   2.041595E+02   1.440242E+02   2.458802E+02   4.385407E+01   7.397155E+01   5.097918E+01   3.483705E+01   1.686615E+01   2.547698E+01   1.794570E+01   4.025262E+01   1.570621E+01   3.606397E+00   3.245816E+00   3.592174E+00   2.159278E+00   4.883392E+00   4.507026E-01   6.847245E-01   1.315184E+00   2.847724E+00   1.136035E+01   9.468491E+00   6.834664E+00   1.423504E+00   1.817053E+00   9.445058E-01   4.112239E-01
   7.922472E-01   2.246888E+00   2.274732E+00   1.527104E+00   9.852393E-01   2.461274E-01   2.675300E+00   1.818251E+00   9.253572E-01   3.780885E-01   2.287685E-01   2.681073E-01   3.851768E-01   8.005901E-01   2.208472E-01   2.557798E-01   8.018702E-01   1.384084E+00   1.589184E+00   2.577582E+00   4.110507E+00   3.428345E+01   2.579417E+02   1.981277E+02   4.178968E+02   6.908871E+01   5.228634E+01   9.279965E+01   3.440799E+01   1.906783E+01   2.466460E+01   5.799463E+01   2.603923E+01   1.088279E+01   2.064890E+00   1.471790E+00   6.376578E+00   5.550446E+00   2.047974E+01   1.681974E+01   6.324243E+00   4.782556E+00   3.381097E+00   4.918939E+00   1.595174E+00   5.034213E-01   1.426996E+00   6.469447E+00   3.578014E+00   7.142191E-01
   5.551502E-01   5.199179E-01   1.303100E+00   1.648373E+00   1.136922E+00   1.190739E+00   1.780594E+00   5.467889E+00   3.376355E+00   2.482011E+00   1.849896E-01   2.689754E-01   3.423923E-01   1.758850E-01   4.838946E-01   4.013692E+00   2.243562E+00   2.096154E+00   1.189673E+00   3.654197E+00   5.165810E+00   2.783047E+01   1.318370E+02   1.495383E+02   1.195169E+02   4.545840E+01   3.422199E+01   8.178607E+00   1.433090E+01   7.434698E+00   6.308900E+00   1.899679E+01   2.771048E+01   1.266799E+00   2.087231E+00   9.036746E-01   3.026463E+00   2.178812E+01   3.927842E+01   4.519975E+01   1.459096E+01   1.598790E+00   1.639124E+00   1.805505E+00   7.391102E-01   1.813110E+00   1.518155E+00   2.152256E+00   7.577934E-01   6.265767E-01
   2.377518E-01   2.032442E-01   2.511835E-01   1.468331E-01   2.390792E-01   7.297189E-01   2.546441E+00   1.699895E+00   9.505075E+00   8.725748E-01   8.251783E-01   5.142696E-01   4.854727E-01   4.177153E-01   1.413005E+00   2.826168E+00   2.618612E+00   4.240685E+00   5.273886E-01   2.176378E+00   1.864553E+01   1.309039E+01   2.163508E+01   7.128756E+01   1.057586E+02   1.690014E+02   1.669378E+01   1.004794E+01   8.123102E+00   2.675110E+00   7.161019E+00   1.165543E+01   5.417947E+00   1.162358E+00   7.836816E-01   4.462002E+00   1.114908E+01   3.688306E+01   3.520314E+01   6.383430E+01   1.825643E+01   1.052064E+00   3.728416E+00   6.052021E+00   2.484585E+00   1.252735E+00   9.189450E-01   9.460227E-02   1.426171E-01   7.762489E-02
   1.030611E-01   1.222828E-01   1.066952E-01   3.834619E-02   1.500466E-01   2.394670E-01   2.860935E-01   4.723943E-01   7.707737E-01   6.849680E-01   8.822942E-01   2.434127E-01   4.198183E-01   4.842325E-01   2.506454E+00   3.797630E+00   3.106040E+00   2.069096E+00   2.335242E+00   8.322396E+00   1.754137E+01   1.163802E+01   3.504137E+01   5.879000E+01   1.016395E+02   1.461451E+01   8.393305E+00   6.228155E+00   1.584974E+00   4.293873E+00   2.868099E+00   2.178319E+00   3.397161E+00   1.338172E+00   2.226723E+00   9.315210E+00   9.238218E+00   3.848696E+01   1.197353E+01   2.789734E+01   5.872859E+00   1.044013E+00   1.370865E+00   4.534208E+00   1.269066E+00   1.413069E+00   1.506102E-01   1.118746E-01   9.944350E-02   6.284207E-02
   1.252629E-01   3.722022E-01   2.595260E-01   8.686994E-02   3.793168E-02   1.172281E-01   5.527891E-02   5.469352E-01   3.777368E-01   8.774229E-01   1.222151E+00   6.438122E-01   2.337356E+00   7.481434E-01   1.287701E+00   2.758467E+00   5.661928E+00   3.410119E+00   4.612669E+00   2.688486E+01   7.506683E+01   1.533981E+01   1.262747E+01   1.550461E+01   6.666921E+00   7.873495E+00   6.200607E+00   7.424072E+00   2.283259E+00   4.060400E+00   3.095376E+00   1.160584E+00   1.148928E+00   9.654191E-01   1.419796E+00   1.659602E+01   1.339392E+01   7.564112E+00   5.424107E+00   4.941235E+00   7.961103E-01   9.977670E-01   2.194217E+00   2.805299E+00   6.265404E-01   1.662049E+00   4.298055E-01   3.659605E-01   7.206720E-02   4.274205E-02
   2.669531E-01   2.045892E-01   3.587416E-01   7.820569E-02   2.197026E-02   5.144653E-03   4.479694E-02   1.536577E-01   4.124219E-01   1.278672E+00   1.116263E+00   1.208337E+00   3.234082E+00   6.263541E+00   7.471776E-01   9.081425E+00   3.622891E+00   9.422629E+00   5.209379E+00   3.355537E+01   1.729678E+02   8.999019E+00   1.294098E+01   9.856311E+00   3.771203E+00   3.414377E+00   6.089098E+00   1.838997E+00   1.568529E+00   1.243870E+00   8.405321E-01   3.248877E-01   6.515534E-01   6.634855E-01   7.814531E+00   1.190200E+01   7.282547E+00   2.010652E+01   3.100329E+00   4.235788E+00   3.089848E+00   1.396083E+00   5.529859E-01   4.211605E-01   6.188816E-01   1.256801E-01   8.765483E-02   5.913334E-01   1.962397E-01   4.442061E-01
   5.922031E-01   4.370591E-01   5.238541E-01   4.640776E-02   1.840529E-02   6.134590E-03   3.293164E-02   3.206891E-01   6.158394E-01   4.046892E-01   1.220590E+00   1.471045E+00   1.043566E+00   7.537978E-01   1.457100E+00   7.918087E+00   8.910714E+00   2.263219E+00   2.981224E+00   4.387055E+01   1.047226E+02   3.989154E+01   5.828505E+01   5.287759E+00   5.857496E+00   3.516783E+00   6.023518E+00   1.795047E+00   2.112006E+00   9.932665E-01   3.212301E-01   9.405164E-01   6.342247E-01   1.081272E+00   1.612726E+00   3.530758E+00   1.363812E+01   6.536895E+00   9.867141E-01   1.687379E+00   6.806418E-01   1.189262E+00   1.350946E+00   7.314780E-01   7.031299E-01   3.664951E-01   6.473086E-01   8.343858E-01   4.314690E-01   1.780929E+00
   1.782286E-01   1.053887E+00   2.713875E-01   5.362903E-02   1.410117E-02   5.605363E-03   7.469260E-03   9.448306E-02   1.554071E-01   3.910060E-01   3.301723E+00   4.919052E-01   1.752875E+00   2.101606E+00   3.556800E+00   7.928159E+00   1.822327E+00   3.006998E+00   3.289946E+01   3.597901E+01   1.520861E+02   1.620199E+02   3.760283E+01   1.275298E+01   2.175792E+01   5.851634E+00   1.410846E+01   3.055962E+01   8.301865E+00   1.159523E+00   2.600168E+00   7.199658E-01   2.310533E-01   3.580490E+00   5.315020E+00   3.041239E+00   2.132804E+00   1.213232E+00   3.561841E-01   1.133346E-01   1.615247E+00   1.349169E+00   1.084970E+00   1.084079E+00   3.029459E-01   3.853368E-01   1.880316E-01   7.319025E-01   1.520645E+00   2.114289E+00
   6.568510E-02   2.013951E-02   4.140000E-02   3.731477E-02   1.638841E-02   2.469372E-03   2.606372E-03   1.014581E-02   8.547172E-02   3.352209E-01   6.860427E-01   1.934928E+00   6.393909E+00   1.992378E+00   2.929564E+01   1.852402E+01   2.169784E+01   5.150472E+00   6.479735E+01   3.695578E+02   3.616717E+02   2.224528E+02   5.973443E+01   8.773401E+00   1.477486E+01   2.458914E+01   7.948879E+01   1.876269E+01   2.048415E+01   2.279491E+00   8.266791E+00   2.309114E+00   9.526998E-01   2.530646E+00   8.789240E-01   1.590003E+00   1.775873E+00   6.821195E-01   1.008347E-01   2.174280E-01   8.380339E-01   1.204255E+00   6.203947E-01   6.550881E-01   1.277660E-01   4.945255E-01   2.507769E-01   7.386016E-01   5.500075E-01   4.842514E+00
   1.028297E-02   9.413521E-03   1.134732E-02   5.118003E-02   6.885005E-03   2.299552E-03   3.496992E-03   1.665035E-02   1.008468E-01   7.667654E-01   1.644036E+00   1.327009E+00   3.510793E+00   4.147305E+00   2.091450E+00   3.795633E+00   5.751928E+00   3.081445E+01   6.413580E+01   5.502008E+01   3.151170E+02   1.079078E+02   4.614548E+01   1.524552E+01   1.191277E+01   5.005625E+01   2.338576E+01   8.822820E+00   9.979927E+00   8.297004E+00   8.758796E+00   6.368855E+00   1.907292E+00   4.184740E+00   3.100402E-01   5.790293E-01   7.115347E-01   2.858158E+00   3.926316E-01   4.783047E-01   7.655783E-01   8.835708E-01   3.168924E-01   2.492006E-01   1.412693E-01   2.303930E-01   1.085259E-01   1.465395E-01   4.304545E-01   1.744250E+00
   1.421886E-02   1.865109E-02   1.695647E-02   5.201758E-02   1.647117E-02   3.505953E-03   8.234895E-03   7.262949E-03   1.186174E-01   1.245547E+00   1.682569E+00   3.494059E+00   7.912531E+00   4.984209E+00   7.280145E+00   1.480285E+00   8.905689E+00   1.539314E+01   3.215422E+01   1.497469E+02   6.839948E+02   2.358056E+02   4.665651E+01   2.467615E+01   5.027686E+01   4.406908E+01   1.022065E+01   1.399362E+01   9.580694E+00   4.928090E+01   2.810943E+00   1.369156E+00   4.410654E-01   4.887412E-01   3.892938E-01   1.014011E+00   9.149202E-01   1.340901E+00   4.210379E+00   1.372687E+00   1.301016E-01   8.608454E-02   3.368264E-01   3.747305E-01   1.014186E-01   1.314661E-01   1.129384E-01   9.795472E-02   5.668892E-01   2.379460E+00
   6.203797E-02   1.279476E-01   3.499291E-02   4.234239E-02   2.390392E-02   3.009526E-02   5.524768E-02   1.124713E-02   6.512728E-02   4.033439E-01   7.013689E-01   3.526033E+00   8.655618E+00   5.269976E+00   1.324532E+00   1.127636E+00   3.318195E+00   1.362676E+01   1.843759E+01   2.103472E+02   2.964714E+02   4.527364E+02   1.662183E+02   1.050040E+02   3.492977E+02   1.029126E+02   2.366364E+01   1.111725E+02   2.296571E+01   1.306170E+01   4.671224E+00   9.901781E-01   1.514016E+00   3.119166E+00   4.357968E-01   1.402564E+00   3.701676E-01   1.776638E-01   1.207622E+00   1.053798E+00   2.801594E-01   7.939841E-01   1.630130E-01   2.542042E-01   2.200546E-02   6.383293E-02   6.402209E-02   2.519649E-01   8.087190E-01   6.478850E-01
   2.013485E-01   1.343079E-01   2.846542E-02   5.386423E-02   8.249967E-03   6.891070E-03   4.554005E-03   7.078398E-02   4.667816E-01   6.204624E-01   1.633499E+00   1.045237E+00   7.789499E+00   2.498243E+00   1.033564E+00   1.102536E+00   6.035212E+00   1.731394E+01   4.441969E+01   8.254796E+02   1.084523E+03   1.358839E+03   2.234920E+02   2.303311E+02   9.840728E+01   1.795646E+02   1.165541E+02   5.021458E+02   2.248820E+02   2.346983E+02   1.276611E+01   7.936927E+00   6.069461E+00   4.901929E+00   4.487860E-01   8.282632E-01   7.896518E-01   1.590347E+00   5.061708E-01   2.784826E-01   9.555190E-01   4.391320E-01   3.944331E-02   4.786469E-02   9.863254E-03   1.738232E-02   1.004508E-01   1.314438E-01   3.181049E-01   1.922149E-01
   2.401554E-02   2.094998E-02   1.962185E-02   7.221183E-03   4.989579E-03   6.221092E-03   1.353895E-02   1.119982E-01   4.014444E-01   6.273318E-02   9.949074E-02   1.962179E+00   3.385358E+00   1.874727E+00   1.947158E+00   4.320709E+00   8.881712E+00   8.760032E+01   1.094937E+02   1.315349E+03   3.883848E+02   6.670532E+02   4.713121E+02   3.940675E+02   7.237353E+01   6.565029E+01   2.146555E+02   3.019054E+02   3.236064E+02   5.304537E+02   4.069763E+02   3.205671E+01   3.308939E+01   3.951305E+00   2.161072E+00   3.007851E+00   1.500208E+00   5.663454E+00   4.501617E+00   5.936218E-01   1.898834E+00   6.117236E-01   1.041189E-01   6.514995E-02   6.133325E-02   7.957596E-02   4.024608E-02   1.959473E-01   3.686662E-01   1.895869E-01
   1.785210E-02   6.982345E-03   1.366197E-02   9.298088E-03   2.096851E-02   1.233333E-02   1.264912E-02   1.665080E-01   4.575991E-01   3.846422E-02   7.558849E-02   3.071968E-01   7.207940E-01   2.730855E+00   2.917905E+00   3.449553E+00   7.347711E+00   1.596198E+01   7.531199E+00   7.891129E+01   1.377110E+02   3.913835E+02   4.401368E+02   4.720016E+02   1.294846E+02   5.151795E+01   1.168562E+02   3.670743E+02   1.134080E+02   3.725847E+02   1.299347E+02   2.803049E+02   4.685772E+01   8.483435E+00   1.603891E+01   6.083282E+00   9.109687E+00   7.776024E+00   8.792795E+00   3.640921E+00   2.324037E+00   1.400014E+00   3.138899E-01   7.938208E-02   7.926685E-02   7.574564E-02   2.194864E-01   4.166219E-01   4.536671E-01   1.514531E-01
   9.217935E-03   2.381524E-02   8.452447E-03   2.857118E-02   3.535160E-02   6.755979E-02   3.818962E-02   4.862278E-02   3.816316E-02   2.121282E-02   2.952594E-02   1.141802E-01   3.181388E-01   7.553858E-01   4.537639E+00   6.001111E-01   5.803161E-01   1.495997E+00   1.328734E+01   1.094158E+02   6.524470E+01   8.435799E+01   1.440851E+02   3.739467E+02   1.217133E+02   1.073695E+02   1.115842E+02   3.133374E+02   3.402924E+02   6.126525E+02   6.202807E+02   7.981945E+01   1.050280E+02   7.809821E+01   4.624013E+00   2.370082E+00   6.234305E+00   2.551829E+00   4.473377E+00   3.003755E+00   1.560109E+00   1.286926E+00   2.513835E-01   1.062854E-01   2.771548E-02   1.507863E-01   1.766762E-01   5.396100E-01   2.098118E-01   6.104486E-02
   3.393623E-02   1.733065E-02   4.716216E-02   7.454012E-02   2.436129E-01   7.932521E-02   6.333215E-02   5.759029E-03   4.116011E-03   2.191012E-03   2.853248E-02   3.795244E-01   2.348716E-01   5.740926E-01   1.287996E+00   7.765042E-01   2.439603E+00   1.816923E+00   6.095638E+00   3.869791E+01   1.653283E+02   1.549419E+02   1.473105E+02   2.882430E+02   1.267514E+02   2.857479E+01   9.660490E+01   4.281269E+02   1.446330E+03   2.517674E+03   1.216867E+03   2.239186E+02   2.398511E+01   3.099434E+01   9.423232E+00   5.025523E+00   2.620893E+00   7.518044E+00   5.040323E+00   4.437968E+00   6.787942E+00   1.697934E+00   2.739229E-01   1.017511E-01   1.851413E-01   1.150288E+00   2.325352E+00   1.526320E+00   5.983306E-01   1.144960E+00
   1.070256E-01   1.778628E-01   2.143055E-01   1.980469E-01   3.526202E-01   1.077769E-01   3.008478E-02   1.880546E-02   7.691384E-03   1.379745E-02   8.919125E-02   1.457652E-01   1.491122E-01   6.270831E-01   2.293859E+00   1.531458E+00   2.350553E+00   3.131888E+00   1.407192E+00   7.008905E+00   5.028622E+01   7.042181E+01   1.148321E+02   2.258864E+02   6.578403E+01   3.162966E+02   5.410049E+02   1.360570E+02   2.075041E+02   3.415674E+02   1.427149E+03   7.605927E+01   1.025022E+01   1.087822E+01   3.085272E+00   4.565453E+00   1.613154E+00   5.700670E+00   4.330750E+00   2.659145E+00   2.364269E+00   3.138132E-01   2.843755E-01   1.132791E-01   1.186932E-01   3.380419E+00   2.438498E+00   1.609095E+00   1.771100E+00   3.080178E-01
   5.749808E-01   3.718046E-01   1.270240E-01   1.673713E-01   3.010297E-01   3.604615E-02   1.674759E-02   1.265999E-02   3.123477E-02   2.050285E-02   1.379184E-01   5.001676E-02   7.574823E-02   6.269439E-02   5.946856E-02   1.203247E+00   1.808725E+00   5.701131E+00   2.239572E+00   5.245703E+00   2.378044E+01   2.693081E+01   1.110866E+02   7.087321E+02   3.759734E+02   8.671836E+02   1.155842E+03   2.876906E+02   2.034319E+02   1.415215E+02   2.025657E+02   4.723923E+01   1.010347E+01   1.196019E+01   4.776837E+00   2.459180E+00   7.875365E+00   9.139628E+00   1.151079E+00   1.784813E-01   2.223580E-01   3.728660E-01   2.005892E-01   1.089089E-01   2.359126E-01   9.066210E-01   1.423331E+00   2.782939E-01   3.483406E-01   1.015439E-01
   2.234280E-01   5.395626E-02   1.131912E-01   1.043367E-01   2.037384E-02   2.047970E-02   1.581280E-02   1.667202E-02   2.653140E-02   1.262001E-02   2.928408E-02   1.593431E-02   4.159283E-02   1.755307E-01   1.047862E-01   9.342360E-02   2.858649E-01   1.029832E+00   4.422021E+00   4.693893E+00   1.529039E+01   4.520527E+01   3.890507E+02   5.824941E+02   3.311768E+02   6.015243E+02   4.239981E+02   1.961004E+02   6.975690E+02   1.494191E+02   1.386992E+02   1.922246E+01   3.185976E+01   1.195963E+01   1.935587E+01   1.031615E+00   1.233742E+00   1.610595E+00   1.880530E-01   1.474933E-01   6.699584E-02   2.296988E-02   1.669904E-01   1.168338E+00   1.031503E+00   6.359391E-01   2.839215E-01   1.650192E-01   1.217935E-01   2.464662E-01
   2.441356E-01   6.707627E-02   1.663430E-01   1.124705E-01   5.234693E-02   5.696829E-02   1.809439E-02   5.132061E-03   1.082721E-02   3.560381E-02   4.187110E-02   1.330872E-02   3.094729E-02   2.510885E-01   5.595511E-01   7.317814E-01   8.450258E-01   1.112590E+00   2.106512E+00   4.033770E+00   1.762849E+02   1.573681E+02   2.109053E+02   1.324438E+02   2.499501E+02   2.728615E+02   4.057981E+03   7.810132E+02   1.578922E+03   1.745742E+02   2.031349E+02   6.871416E+01   4.508120E+01   7.786427E+00   1.357905E+00   9.256744E-01   9.181939E-01   7.349226E-02   9.899208E-02   3.746169E-02   2.437481E-02   6.426185E-02   4.858330E-01   4.889312E+00   6.429855E-01   1.187916E+00   1.469120E-01   2.913817E-01   4.572577E-01   1.092440E-01
   1.925731E-01   6.514718E-02   7.574479E-02   8.755849E-02   4.345798E-02   4.965127E-02   6.592831E-03   2.906735E-03   6.630010E-03   3.677493E-02   5.001691E-02   5.978888E-02   6.293119E-02   7.380264E-01   2.044706E+00   1.313015E+00   2.017800E+00   3.784372E+00   1.414575E+00   9.461189E+00   2.744062E+02   6.543832E+02   1.108638E+02   1.142785E+02   7.418906E+01   9.960247E+01   8.770626E+02   3.442181E+02   6.419683E+02   9.915824E+01   8.282816E+02   4.677309E+01   6.832188E+00   7.736190E+00   1.654931E+00   4.052323E-01   3.222510E-01   2.843961E-01   4.450291E-01   1.429924E-01   4.872898E-01   3.627796E-01   6.759685E-01   1.001039E+00   4.752610E-01   4.819055E-01   6.428759E-01   4.399516E-01   1.481041E+00   2.642899E-01
   2.793395E-01   1.373669E-01   2.533733E-01   1.998285E-01   3.150252E-01   6.764003E-02   3.979608E-02   2.361901E-02   4.582935E-02   4.102550E-02   3.792416E-02   7.218627E-02   5.195376E-02   4.611049E-01   6.412353E+00   3.086082E+00   9.712475E+00   3.467564E+00   2.448920E+00   2.502593E+00   6.416795E+01   1.882330E+02   9.225262E+01   1.837733E+02   5.283213E+01   6.204284E+01   1.361669E+02   1.911116E+02   9.073519E+01   5.123365E+01   1.506429E+02   1.694917E+02   1.777316E+01   4.600647E+01   2.263619E+00   6.628745E-01   5.340226E-01   1.687911E+00   1.474338E+00   5.899137E-01   1.121388E+00   5.094925E-01   6.461850E-01   2.236017E-01   5.771499E-01   2.448250E+00   7.766577E+00   8.908082E-01   5.943809E-01   1.520412E-01