# UPW package for  MODFLOW-NWT, generated by Flopy.
        55    -1E+30         0         0 
         1
         0
   1.000000E+00
         0
         0
INTERNAL               1  (50E15.6) -1 #hk layer 1                    
   9.954594E-02   2.562616E-01   1.545375E-01   2.405446E-01   7.210699E-01   1.442735E+00   2.983399E-01   5.775635E-01   2.587733E+00   3.457182E+00   4.529203E+00   5.269110E+00   3.379513E+00   2.920093E+00   1.192858E+00   1.993902E+00   1.870869E+00   7.777664E-01   2.965524E-01   3.489462E-01   7.111584E-02   3.970665E-02   1.641046E-02   2.756669E-02   4.963008E-02   7.467554E-02   7.110544E-02   7.169586E-02   4.805079E-01   3.990468E-01   5.233624E-01   2.250999E+00   3.328990E+00   5.206317E-01   7.542866E-02   3.253388E-02   1.145643E-01   5.609560E-01   7.280090E-01   9.298336E-01   6.406237E-01   2.014474E+00   1.925649E+00   1.052754E+01   5.507329E+00   2.210084E+00   1.351718E+00   6.852291E-01   1.005784E+01   7.560111E+00
   1.906975E-01   1.096181E+00   3.653885E-01   9.754406E-01   1.628675E+00   3.515435E+00   4.970917E-01   4.783928E-01   4.039529E+00   3.528986E+00   2.253945E+01   4.710099E+00   2.596833E+00   3.179841E+00   3.009669E-01   3.626055E-01   2.105567E-01   7.412884E-02   4.419818E-02   9.978784E-02   1.665775E-01   5.828293E-01   1.192044E-01   5.184136E-02   6.553100E-02   8.414467E-02   1.322093E-01   9.545436E-02   1.380292E-01   6.657736E-01   1.524557E+00   5.053403E-01   5.040940E-01   2.852981E-01   8.087526E-02   1.380141E-01   6.236778E-02   6.078064E-01   4.312347E-01   8.933151E-01   6.131850E-01   2.864183E+00   1.586968E+01   8.985445E+00   3.111484E+00   1.494468E+00   5.520672E+00   2.676748E+00   1.075462E+01   7.998977E+00
   1.334506E-01   3.759102E-01   7.766643E-01   2.849885E-01   7.516454E-01   1.575550E+00   2.091188E+00   9.827588E-01   1.464206E+00   3.286587E+00   3.897425E+00   1.806495E+00   1.719486E+00   1.237139E+00   7.399278E-01   2.446995E-01   1.023321E-01   5.004356E-02   1.023251E-01   9.476599E-02   2.546208E-01   5.733672E-01   1.103176E-01   6.501703E-02   5.296574E-02   5.229975E-02   7.368185E-02   2.295444E-01   8.326024E-02   8.676229E-02   1.106597E+00   9.811385E-01   3.390227E-01   1.811345E-01   1.436943E-01   3.574055E-01   1.825825E-01   2.216250E-01   7.215418E-01   3.052808E+00   4.716979E+00   4.811783E+00   6.650450E+00   3.763896E+00   2.152753E+00   1.092477E+00   8.038803E-01   1.537088E+01   2.275361E+01   1.804738E+01
   2.294835E-01   4.871417E-01   3.524675E-01   2.113480E-01   2.935040E-01   2.674548E-01   8.521822E+00   1.521198E+00   7.185152E-01   8.586004E-01   1.026973E+00   4.911284E+00   1.602526E+00   3.790893E-01   4.132550E-01   2.283356E-01   7.396947E-02   2.336734E-02   1.434837E-01   1.459034E-01   2.077129E-01   1.401271E-01   5.228208E-02   8.885270E-02   4.060338E-02   8.472971E-02   1.059301E-02   1.141458E-02   5.231443E-02   1.547609E-01   3.186669E-01   3.592613E+00   1.096412E+00   2.797056E-01   6.508335E-01   4.950773E-01   3.146499E-01   7.165917E-01   3.749165E-01   6.942140E+00   1.049783E+01   7.912585E+00   3.698053E+00   6.722476E+00   7.120213E+00   3.621325E+00   2.336821E+00   6.098151E+00   5.380147E+00   2.973044E+00
   4.686679E-01   3.732381E-01   4.414306E-01   3.918251E-01   1.134728E-01   3.356308E-01   1.275187E+00   4.042826E+00   2.386415E+00   8.616610E-01   7.979452E-01   1.460349E+00   1.037635E+00   1.752763E+00   1.486416E+00   2.188485E-01   3.815886E-02   1.745367E-02   4.389332E-02   4.131647E-02   7.283971E-02   3.824123E-02   1.344049E-01   7.008172E-02   1.517324E-02   8.213798E-02   2.742326E-02   5.223904E-02   7.644414E-01   8.268916E-01   4.639575E-01   1.451644E+00   3.594505E-01   8.802577E-01   6.602755E-01   5.761361E-01   1.634887E-01   1.519511E-01   2.564512E-01   1.866599E+00   5.097786E+00   1.490050E+01   4.363297E+00   3.816842E+00   4.792938E-01   7.460759E-01   5.766295E-01   3.407304E+00   7.942472E+00   1.452593E+00
   2.794726E+00   1.935040E-01   2.113690E-01   2.127378E-01   6.780174E-01   4.665714E-01   4.284428E-01   1.648455E+00   7.001361E-01   4.188385E-01   3.123948E-01   1.917768E+00   1.782638E+00   6.873717E-01   6.433518E-01   1.121618E-01   4.165952E-02   1.675942E-02   7.737995E-02   3.317525E-02   7.032321E-02   3.399632E-02   1.056405E-01   2.216807E-02   2.468573E-02   3.122533E-02   4.109073E-02   3.351420E-02   1.464272E-01   1.914357E-01   2.709194E-01   7.649180E-01   9.367647E-01   4.905501E-01   3.679531E-01   4.462757E-01   1.174546E-01   1.301780E-01   1.340071E+00   3.525650E+00   1.224383E+01   1.613767E+01   5.238895E+00   2.019330E+00   4.636593E-01   1.279134E+00   5.013567E-01   3.462786E+00   7.401404E+00   6.647054E+00
   1.607438E+00   7.072654E-01   7.982444E-01   6.095762E-01   1.411909E+00   5.158091E-01   2.759241E-01   7.266225E-01   7.118655E-01   5.494852E-01   4.084545E-01   6.721122E-01   1.019742E+00   3.168622E+00   9.187874E-01   1.126272E-01   1.145592E-01   1.986832E-02   3.868159E-02   2.988293E-02   5.346749E-02   4.671799E-02   3.096610E-02   1.813917E-02   9.947033E-02   1.253088E-01   6.902156E-02   5.094757E-02   1.201573E-01   4.818877E-01   2.446654E-01   1.270142E+00   2.045079E+00   4.879400E-01   2.451621E-01   1.679351E-01   1.610323E-01   3.380922E-01   2.556782E+00   1.863674E+00   2.332974E+00   8.759461E+00   1.802478E+00   6.213973E-01   6.881523E-01   3.698843E-01   4.020576E-01   7.569685E-01   7.669901E-01   3.010183E+00
   8.321259E+00   1.305493E+00   1.693328E+00   3.199537E-01   2.145224E-01   3.683784E-01   2.211795E-01   5.209486E-01   5.421675E-01   2.697923E-01   1.123386E-01   4.637430E-01   2.046882E-01   6.762410E-01   3.561057E-01   1.888129E-01   8.343852E-02   1.431365E-01   1.182299E-01   2.359004E-02   2.887720E-02   4.364958E-02   6.587596E-02   4.771994E-02   1.787222E-01   3.082419E-01   5.829403E-01   4.120221E-01   6.855549E-01   8.172358E-01   3.827061E-01   6.870824E-01   6.777011E-01   5.420378E-01   1.116091E+00   5.933369E-01   3.171463E-01   9.153013E-01   5.505578E-01   1.629400E+00   3.447858E+00   3.339749E+00   7.223926E-01   7.811313E-01   5.365742E-01   1.717815E-01   3.340227E-01   3.503863E-01   1.379684E+00   9.761086E-01
   4.675631E+00   9.112242E-01   3.410422E-01   5.987626E-02   1.590513E-01   6.379160E-01   2.623470E-01   3.717798E-01   2.945563E-01   6.569434E-02   4.245945E-02   5.524857E-02   2.081053E-01   5.231827E-01   1.712892E-01   8.025805E-01   4.127106E-01   2.570156E-01   7.021796E-02   2.555880E-02   2.622029E-02   4.467941E-02   3.318967E-02   6.942529E-02   6.842248E-02   1.489681E-01   9.326465E-01   3.277726E-01   3.317358E-01   2.391395E-01   1.454083E-01   4.119018E-01   4.327131E-01   4.701051E-01   7.535300E-01   4.158996E-01   1.811485E-01   8.851748E-01   5.956240E-01   3.524607E+00   8.943584E+00   1.187480E+01   6.348364E+00   1.408837E+00   1.147562E+00   3.243611E-01   5.924370E-01   1.992390E+00   7.717952E-01   3.939719E-01
   8.639570E-01   2.120128E+00   1.920055E+00   1.777892E-01   3.550079E-01   7.077728E-02   9.896255E-02   3.611503E-02   2.523259E-01   9.235961E-02   7.729213E-02   4.627083E-01   1.258624E-01   6.522088E-01   2.860011E-01   7.949157E-01   3.438735E-01   4.866832E-01   1.598928E-01   1.388212E-01   9.028310E-02   4.167872E-02   7.151622E-02   1.488836E-02   8.512136E-02   1.088311E-01   1.329256E-01   1.458815E-01   7.272987E-02   1.796518E-01   1.907259E-01   3.787786E-01   3.873867E-01   4.411176E-01   3.685263E-01   1.287050E+00   9.272556E-01   2.796543E+00   1.104660E+00   2.870803E-01   3.831869E+00   1.803391E+01   8.314274E+00   7.845238E-01   5.906897E-01   3.105546E-01   6.163496E-01   5.388389E-01   3.819322E-01   3.912550E-01
   3.384776E+00   2.017984E+00   7.381899E-01   3.467392E-01   1.047481E-01   8.802045E-02   3.040848E-02   4.187224E-02   1.535043E-01   6.572032E-02   1.320679E-01   2.234366E-01   4.092472E-01   2.804854E+00   5.528306E+00   8.404428E-01   4.010009E-01   2.575442E-01   2.100565E-01   4.069543E-01   6.254038E-02   9.266611E-02   1.205606E-01   1.707033E-01   2.786620E-01   1.692554E-01   1.498567E-01   2.038237E-01   1.566310E-01   1.511963E-01   4.922468E-02   1.259944E-01   3.629824E-01   8.543348E-01   7.434306E-01   1.199211E+00   1.184608E+00   1.659093E+00   5.438331E+00   3.051787E+00   1.306305E+01   7.075428E+00   2.623228E+00   5.422518E-01   1.485255E+00   1.241953E+00   3.822206E-01   6.662611E-01   8.566215E-01   6.927485E-01
   6.525111E+00   9.836513E+00   6.735960E-01   1.946957E-01   9.309792E-02   7.602023E-02   9.512992E-02   1.487746E-02   2.070726E-02   8.496971E-02   9.826845E-02   2.427546E-01   3.035774E-01   1.688840E+00   4.173271E+00   1.735125E+00   1.300785E-01   2.100025E-01   5.600981E-02   1.574420E-01   6.975108E-02   1.674193E-01   5.617909E-01   4.419197E-01   4.036887E-01   2.820323E-01   1.960000E-01   2.632073E-01   5.575326E-01   4.267588E-01   7.417670E-02   1.573143E-01   6.289604E-01   5.113962E-01   2.456507E-01   6.799293E-01   2.522075E+00   7.429593E-01   6.660663E-01   5.716888E-01   2.903002E+00   6.835334E+00   2.726731E+00   4.995487E+00   3.589430E+00   1.499408E+00   8.875961E-01   5.439832E-01   5.306621E-01   1.397439E-01
   1.040130E+01   1.798624E+01   3.808701E+00   1.155685E+00   7.303587E-02   6.530258E-02   5.327700E-02   1.955151E-02   1.912721E-02   8.202949E-02   1.114319E-01   1.683892E-01   5.341972E-01   2.711139E+00   5.909747E-01   5.127736E-01   5.267297E-01   6.950027E-01   5.155439E-01   2.160991E-01   5.004763E-01   1.727445E+00   4.057177E-01   7.469197E-01   3.573109E-01   4.763002E-01   2.496077E-01   6.160133E-01   3.819785E-01   3.573329E-01   9.665721E-02   1.028571E-01   1.568262E-01   3.175809E-01   1.966967E-01   1.159523E+00   1.118898E+00   1.034097E+00   1.272972E+00   1.553336E+00   3.406814E+00   9.511852E+00   6.519538E+00   3.204211E+00   3.075913E+00   2.081618E+00   1.071274E+00   1.749156E+00   7.322821E-01   1.797061E-01
   4.732594E+00   4.551740E+00   1.149486E+00   1.538728E-01   3.718581E-02   1.914598E-02   2.779319E-02   9.620117E-03   1.145050E-02   1.339259E-01   1.564682E-01   4.486221E-01   4.581581E-01   4.952403E-01   4.653457E-01   2.037673E-01   1.388498E-01   3.104342E-01   5.939081E-01   2.950731E-01   1.028772E+00   2.459863E+00   6.536261E-01   1.197950E-01   3.087992E-01   6.277980E-01   1.390222E+00   4.324836E+00   9.121951E-01   8.630085E-01   1.278969E-01   1.846557E-01   4.645067E-01   6.903961E-01   1.574878E+00   1.161901E+00   1.286513E+00   9.768488E-01   3.239211E-01   7.099487E-01   1.584715E+00   3.311447E+00   7.994024E+00   1.701785E+00   9.627255E-01   2.196567E+00   6.006326E+00   8.179659E-01   9.286341E-01   1.826758E-01
   3.732493E+00   1.249961E+00   5.704874E-01   5.686531E-02   1.029547E-01   2.932566E-02   4.331242E-02   9.186424E-03   1.509362E-02   5.144123E-02   5.316911E-02   9.769252E-02   7.854760E-02   1.140796E-01   1.999638E-02   1.041818E-01   1.547104E-01   2.308653E-01   3.264955E-01   1.124588E+00   1.831332E+00   9.813442E+00   2.128490E+00   7.354136E-01   9.828749E-01   1.040511E+00   4.587170E-01   1.093621E+00   8.804839E-01   3.823709E-01   1.189942E-01   1.571300E-01   1.516169E+00   1.305354E+00   1.838711E+00   9.135814E-01   2.715217E+00   1.351771E+01   3.302761E+00   9.344968E-01   1.520505E+00   2.968904E+00   5.743195E+00   3.486570E+01   2.664981E+00   7.281958E+00   7.860624E-01   1.586391E-01   6.185727E-01   1.296379E-01
   9.682066E-01   2.868943E-01   2.618982E-01   4.599166E-01   8.573411E-02   4.381469E-02   1.726343E-01   1.271867E-01   1.195103E-01   1.215534E-02   1.538554E-02   1.933238E-02   1.503649E-02   2.209736E-02   1.936481E-02   5.573083E-02   1.433361E-01   1.903588E-01   4.204359E-01   7.467599E-01   3.371723E+00   1.563967E+00   1.548858E+00   1.160339E+00   6.221632E-01   4.214920E-01   2.628885E+00   3.593871E-01   3.560649E-01   1.537995E-01   2.202388E-01   1.144494E-01   3.792598E-01   1.444341E+00   4.007998E+00   1.275522E+00   2.782895E+00   3.503661E+00   1.468751E+00   2.745618E+00   3.026462E+00   2.833216E+00   1.360623E+00   1.227125E+01   9.424890E+00   1.018179E+01   1.382953E+00   2.274145E-01   2.129567E-01   2.011944E-01
   5.256780E-01   1.911592E-01   3.018465E-01   5.364193E-01   5.458212E-01   5.059944E-02   2.848985E-01   1.371156E+00   3.131578E-01   7.842413E-02   2.331981E-01   4.691630E-02   4.314857E-02   8.066625E-02   7.908489E-02   6.669441E-02   7.036862E-02   7.636984E-02   2.178261E-01   4.730223E-01   2.496490E-01   7.981565E-01   1.367332E+00   2.018092E+00   1.285923E+00   2.613278E-01   2.014150E-01   1.505520E-01   9.213262E-02   1.965655E-01   1.619928E-01   2.360617E-01   2.351106E-01   8.486859E-01   2.205555E+00   1.045995E+00   2.407859E+00   8.398335E-01   4.251139E+00   3.434672E+00   2.566494E+00   6.813611E+00   3.106705E+00   5.648958E+00   8.042751E+00   7.292002E+00   2.435088E+00   6.319516E-01   3.881750E-01   1.006592E+00
   4.881481E-01   3.993444E-01   4.109955E-01   3.113801E-01   4.527905E-01   3.501675E-01   2.773300E-01   1.044392E+00   1.089605E+00   3.196918E-01   1.752285E-01   7.240967E-02   9.562634E-02   1.291882E-01   1.095062E-01   6.337448E-01   7.535163E-02   2.312946E-02   1.363892E-01   1.172261E+00   3.810088E-01   4.349118E-01   1.194065E+00   1.373490E+00   3.980793E+00   9.560170E-01   1.648659E-01   1.831308E-01   2.566784E-01   1.887643E-01   3.342721E-01   1.975546E-01   2.234160E-01   1.430286E-01   8.754758E-01   2.628989E+00   1.348523E+00   2.009261E+00   3.113004E+00   5.673953E+00   2.611349E+00   2.600211E+00   2.554756E+00   7.264136E+00   1.193096E+01   1.444861E+01   7.383064E+00   1.319719E+00   2.000178E-01   4.367577E-01
   7.409810E-01   2.667331E-01   2.139544E-01   2.998452E-01   1.268328E-01   5.906238E-01   1.002397E+00   1.267224E+00   3.778621E+00   1.092675E+00   5.350131E-01   5.447001E-01   1.862069E-01   1.179537E-01   1.402954E-01   1.879553E-01   1.941421E-01   1.680625E-01   3.251356E-01   6.982393E-01   3.222110E-01   5.826478E-01   2.473825E+00   2.647210E+00   9.026500E-01   4.340068E+00   1.123899E+00   9.302520E-01   7.214928E-02   3.008583E-01   2.151742E-01   4.785852E-01   2.958838E-01   2.793639E-01   1.203959E+00   5.274217E+00   1.027860E+01   1.063349E+01   3.155369E+00   5.972196E+00   3.530578E+00   2.727193E+00   3.901070E+00   3.381423E+00   2.185348E+00   1.263489E+01   2.055743E+00   1.831115E-01   3.280742E-01   2.809921E-01
   1.441797E+00   6.015756E-01   5.176038E-01   1.061272E-01   3.682721E-01   4.802776E-01   4.224106E-01   1.490240E+00   4.272895E+00   2.144403E+00   7.636194E-01   3.095457E-01   1.547528E+00   5.196669E-01   3.860956E-01   2.321275E-01   3.983615E-01   1.519229E-01   3.853099E-01   2.024716E-01   7.800550E-01   4.995212E-01   2.274708E+00   1.521887E+00   2.376665E-01   1.947773E-01   4.226809E-01   5.281676E-01   1.506790E-01   1.139490E-01   3.175149E-01   4.866791E-01   1.492154E+00   9.267430E-01   1.794038E+00   1.758000E+01   1.159213E+01   2.744784E+01   8.701072E+00   6.948890E+00   3.705163E+00   1.080771E+00   2.654841E+00   7.147633E+00   5.481045E+00   7.869913E+00   1.348753E+00   2.601126E-01   2.212205E-01   1.316373E-01
   2.610459E+00   2.983783E+00   4.277694E-01   2.772076E-01   1.142538E-01   5.759437E-02   1.622088E-01   9.174287E-01   2.321332E+00   2.438087E+00   7.798116E-01   1.636054E+00   7.122672E-01   3.757080E-01   2.651835E-01   4.712077E-01   5.937152E-01   3.121597E-01   1.908977E-01   3.618659E-01   8.568918E-01   3.386208E-01   2.203118E-01   7.709329E-01   7.762977E-01   5.411911E-01   4.092171E-01   1.303744E-01   2.144975E-01   3.107611E-01   8.504553E-01   1.432778E+00   2.188200E+00   1.935127E+00   1.631996E+00   1.098456E+01   5.526273E+00   7.510598E+00   7.894475E+00   2.863721E+01   2.990333E+00   5.815935E-01   2.751343E+00   7.461824E+00   5.611745E+00   5.554903E+00   1.230483E+00   4.678173E-01   3.413808E-01   9.745720E-02
   2.162498E+00   1.073044E+00   5.427474E-01   9.419404E-01   4.899664E-01   1.645854E-01   1.096876E-01   7.140904E-01   3.432445E+00   2.049490E+00   5.922943E-01   1.286047E-01   9.189525E-01   1.314612E+00   2.615218E-01   4.252800E-01   1.038474E+00   5.004796E-01   7.336807E-01   3.415063E+00   5.750089E-01   8.892297E-02   4.794030E-01   8.111634E-01   7.911353E-01   1.010625E+00   2.494539E-01   8.307283E-01   1.359967E-01   2.570404E-01   7.365394E-01   3.501690E+00   3.481866E+00   1.344227E+01   1.871347E+01   6.281728E+00   3.954803E+00   3.564177E+00   4.146354E+00   1.155931E+01   4.493158E+00   6.866831E-01   8.083760E-01   4.302895E+00   9.069059E+00   4.413231E+00   9.151367E-01   2.759740E+00   6.913539E-01   4.344829E-01
   1.924927E+00   1.021411E+00   1.161172E+00   3.312356E+00   9.642521E-01   1.147293E-01   1.531111E+00   1.890678E+00   7.747527E-01   4.112544E-01   1.012583E+00   3.175262E-01   2.263572E-01   4.294875E-01   1.875529E-01   1.714628E-01   9.276498E-01   4.791825E-01   1.711017E-01   1.157388E+00   1.355485E+00   1.642036E-01   5.782001E-01   2.600013E-01   4.023519E-01   4.356487E+00   5.474033E-01   6.318908E-01   3.868423E-01   1.366511E+00   1.676642E+00   9.074526E+00   3.743189E+01   3.977557E+00   4.378634E+00   7.474716E+00   1.454704E+01   7.418274E+00   1.020972E+01   4.924622E+00   5.527554E+00   4.292107E+00   2.107264E+00   3.113242E+00   6.360702E+00   2.016048E+00   2.116838E+00   5.328750E+00   3.855857E+00   2.222578E+00
   1.243342E+00   4.277102E+00   8.998848E-01   1.622655E+00   9.303079E-01   3.256773E-01   2.526458E-01   4.075310E-01   3.983032E-01   1.003599E+00   2.186183E-01   1.102797E-01   4.953987E-01   4.478551E-01   7.647865E-01   3.799603E-01   1.767758E-01   2.142366E-01   8.733982E-01   7.642947E-01   4.218476E-01   8.348656E-01   1.464077E+00   2.023491E-01   4.193048E-01   2.450986E+00   2.656904E+00   2.694419E+00   4.457301E+00   4.677524E+00   4.359144E+01   3.097182E+01   1.291147E+01   1.616805E+01   1.788676E+01   1.649951E+01   1.359582E+01   1.099966E+01   1.123757E+01   3.597821E+00   3.822550E+01   9.458251E+00   3.759351E+00   2.203167E+00   1.290300E+00   3.149084E+00   7.996055E+00   1.534529E+01   6.995883E+00   7.536561E+00
   6.106133E+00   2.336843E+00   6.951137E-01   6.817305E-01   5.587114E-01   3.287748E-01   3.214583E-01   2.340174E-01   4.142304E-01   2.418497E-01   1.036207E-01   2.949446E-01   5.085899E-01   6.675993E-01   1.452136E+00   3.650378E-01   3.240784E-01   5.207023E-01   1.422181E+00   1.822486E+00   5.858166E-01   8.072886E-01   3.022983E+00   8.375595E-01   2.145396E+00   4.462173E+00   4.722027E+00   1.760983E+00   4.796511E+00   4.347934E+00   3.882846E+01   1.575074E+01   9.879748E+01   8.755489E+00   1.107753E+01   5.915181E+00   1.599963E+01   3.070818E+01   4.802622E+00   7.308761E+00   2.665984E+01   9.613974E+00   1.807239E+00   1.182233E+00   3.142318E+00   5.231694E+00   1.902406E+00   5.919670E+00   2.180831E+01   1.608808E+01
   5.438196E+00   3.053761E+00   8.162946E-01   6.848296E-01   2.392991E-01   6.996965E-02   2.905906E-01   5.018830E-01   6.153699E-01   2.334972E-01   2.436600E-01   3.459245E-01   1.098620E-01   1.347626E-01   8.597947E-01   2.339434E-01   3.105729E-01   2.966558E-01   4.608550E-01   5.329772E-01   2.981688E+00   1.166515E+00   5.676184E+00   1.369107E+00   2.795782E+00   3.395582E+00   3.969609E+00   2.710305E+00   1.433067E+01   1.876071E+01   2.766095E+01   1.270560E+01   1.905391E+01   6.999062E+00   3.481689E+00   4.185472E+00   1.455850E+01   5.304046E+01   4.199057E+01   1.351228E+01   9.321282E+00   2.696055E+00   1.317960E+00   1.470999E+00   1.537360E+00   2.493061E+00   1.300990E+00   5.022053E+00   1.103681E+01   6.825922E+01
   1.021680E+00   2.439857E+00   1.932179E+00   1.956564E-01   4.379663E-02   2.671135E-02   5.951914E-02   1.982992E-01   1.482168E-01   1.779375E-01   3.740198E-02   9.235760E-02   8.680049E-02   1.058004E-01   4.428921E-01   1.982791E-01   2.769613E-01   1.967211E-01   1.800585E-01   1.706946E-01   3.591865E+00   2.044112E+00   2.017472E+00   1.095989E+00   2.457226E+00   1.113422E+00   5.175821E-01   1.495276E+00   1.965073E+01   2.016224E+01   1.672920E+01   1.690220E+01   6.871261E+00   6.855990E+00   4.338088E+00   4.873247E+00   7.561463E+00   1.225890E+01   2.281279E+01   1.919476E+01   3.791202E+00   1.074008E+00   2.630006E+00   3.825208E+00   2.452116E+00   3.788885E+00   5.255160E+00   9.450297E+00   1.799674E+01   6.474967E+01
   4.250137E-01   8.107479E-01   2.291523E-01   6.047630E-02   2.232824E-02   3.392701E-02   9.734569E-02   1.493836E-01   6.561957E-02   3.183367E-02   9.362242E-03   5.794033E-02   8.528001E-02   5.810083E-02   1.183938E-01   2.484042E-01   1.636976E-01   6.343993E-02   1.333909E-01   4.455817E-01   1.608105E+00   8.051022E-01   3.925230E-01   3.895747E-01   5.082432E+00   2.946601E+00   1.201337E+00   1.381483E+01   1.333431E+01   7.638860E+01   5.703458E+01   1.796894E+01   8.073980E+00   7.438180E+00   5.895052E+00   2.047899E+00   3.772961E+00   1.038216E+01   1.328803E+01   5.717577E+00   1.192811E+00   3.755234E+00   4.541457E+00   4.249409E+00   7.157462E+00   2.300389E+00   8.906097E+00   1.179929E+01   3.032615E+01   4.132836E+01
   2.035022E-01   1.569572E-01   5.120797E-02   2.905384E-01   2.958515E-02   2.239337E-02   2.962389E-02   9.007931E-02   1.737786E-01   9.807732E-03   3.715678E-02   2.467090E-02   7.421716E-02   6.358423E-02   1.505844E-01   1.724725E-01   1.394751E-01   1.276071E-01   7.186282E-02   1.735697E-01   3.687981E-01   4.006355E-01   1.712836E+00   1.031436E+00   1.243034E+00   7.193415E-01   5.258763E+00   4.581504E+01   5.869090E+01   6.519996E+01   2.430306E+01   3.915008E+01   5.757570E+00   2.884882E+00   1.648548E+00   2.731650E+00   3.345605E+00   2.732814E+01   9.066412E+00   3.986539E+00   1.284766E+01   6.110967E+00   3.508877E+00   4.208089E+00   3.916101E+00   2.798725E+00   4.919817E+00   1.998986E+01   1.333279E+01   1.567655E+01
   5.266272E-02   2.320858E-01   5.674687E-02   2.006324E-02   4.681000E-03   1.526271E-02   3.972758E-02   3.602430E-02   1.687337E-01   2.451561E-02   1.697444E-02   5.126997E-02   2.174368E-01   7.028217E-02   5.991625E-02   4.088275E-01   4.391352E-01   5.963140E-01   2.497032E-01   1.099521E-01   1.111511E-01   3.744465E-01   2.246404E+00   1.406390E+00   5.347609E-01   9.620306E-01   8.791664E+00   3.582797E+01   3.807466E+01   7.607833E+01   5.223312E+01   1.682398E+01   2.346701E+01   1.406504E+01   8.434255E+00   5.187750E+00   2.918124E+00   8.255148E+00   1.482419E+01   7.495491E+00   2.101957E+00   4.361632E+00   3.733343E+00   1.856893E+01   1.770772E+01   1.001394E+01   1.646062E+01   1.535121E+02   3.444687E+01   1.211912E+01
   4.018887E-02   1.000441E-01   1.332172E-01   4.582720E-02   1.583243E-02   2.455391E-02   2.408943E-02   7.287666E-02   1.510179E-01   5.111213E-02   3.155790E-02   1.150337E-01   1.672546E-01   2.894181E-02   2.209180E-02   1.153114E-01   6.991162E-01   7.041487E-01   1.680736E-01   2.866888E-01   1.442499E-01   2.589954E-01   4.571277E-01   1.436457E+00   1.159279E+00   1.962014E+00   9.585480E+00   3.994989E+01   4.742936E+01   2.785435E+01   4.252478E+01   9.687726E+01   8.415730E+01   2.478246E+01   1.581762E+01   2.264157E+00   3.453622E+00   6.239712E+00   5.833466E+00   2.719890E+00   1.276130E+00   2.267044E+00   8.248872E+00   1.177605E+01   3.889417E+01   1.174514E+01   2.281852E+01   9.605493E+00   6.630507E+00   4.419983E+00
   2.340200E-02   1.281983E-01   2.443479E-02   4.591486E-02   3.398479E-02   8.750872E-02   1.032981E-01   1.660655E-01   1.500342E-01   4.007442E-02   3.245630E-02   1.439525E-01   1.698953E-01   7.857267E-02   3.618785E-01   6.388052E-02   1.342070E-01   2.718160E-01   1.911155E-01   5.243827E-01   1.660374E-01   3.134333E-01   7.234115E-01   4.016441E+00   3.008976E+00   3.542743E+00   2.347227E+01   5.525272E+01   5.288086E+01   7.174342E+01   7.665974E+01   5.161233E+01   1.056882E+02   2.887199E+01   9.719686E+00   2.777751E+00   6.678185E+00   5.486002E+00   4.965581E+00   3.474609E+00   3.567307E+00   5.073242E+00   9.260666E+00   1.173057E+01   1.929728E+01   7.520036E+01   6.529826E+01   2.652905E+01   3.103386E+00   1.745568E+00
   9.174002E-03   1.308612E-02   4.495275E-02   6.230005E-02   2.189821E-01   1.864473E-01   7.579456E-02   9.488036E-02   1.931676E-01   5.671338E-02   6.632776E-02   1.272112E-01   2.829085E-01   2.139933E-01   1.524117E-01   1.073698E-01   1.575223E-01   1.818678E-01   1.201134E+00   1.816819E+00   5.145990E-01   1.053761E+00   1.673002E+00   7.796387E+00   2.274685E+00   5.345513E-01   6.919952E+00   3.948164E+01   6.021636E+01   4.664171E+01   5.489672E+01   2.287304E+01   3.402382E+01   6.342761E+01   1.826447E+01   2.009602E+00   3.441763E+00   1.395757E+01   1.457385E+01   7.526886E+00   6.141590E+00   5.176431E+00   8.864647E+00   6.629160E+00   4.858389E+01   9.769936E+01   3.010828E+02   5.599810E+01   5.511816E+00   2.274426E+00
   4.763581E-02   1.552880E-02   9.592525E-02   1.110113E-01   1.033929E-01   2.368698E-02   4.230905E-02   9.472876E-02   2.822142E-01   3.219914E-01   4.925697E-01   1.490881E-01   7.501590E-02   9.988464E-02   1.269017E-01   1.695484E-01   2.804973E-01   2.271761E-01   4.575467E-01   6.777184E+00   1.886106E+00   1.484452E+00   2.090731E+00   2.984159E+00   2.775772E+00   1.054020E+00   5.928201E+00   7.815895E+00   5.235068E+01   5.503671E+01   1.001178E+02   8.322957E+01   1.943758E+02   5.287829E+01   7.639379E+00   6.637386E+00   4.868611E+00   4.173277E+00   9.788280E+00   4.090073E+00   9.702528E+00   3.122098E+00   8.489435E+00   1.524872E+01   5.673284E+01   7.210731E+01   1.327337E+02   1.267969E+02   4.111608E+01   1.269431E+01
   1.406513E-01   1.152227E-01   1.245636E-01   1.020652E-01   1.828937E-01   1.969925E-01   1.232637E-01   3.211777E-02   4.598668E-01   1.898910E-01   6.426818E-01   9.467040E-01   2.347331E-01   8.393823E-02   3.159142E-02   9.415142E-02   1.457104E-01   2.353661E-01   2.995496E-01   7.207680E-01   3.364057E+00   2.054340E+00   4.475168E+00   2.874037E+00   3.018418E+00   1.373488E+00   1.393391E+01   1.152252E+01   3.859431E+01   5.252468E+01   1.829925E+02   2.781170E+02   1.111712E+02   6.722640E+01   3.482138E+01   3.794080E+00   3.776185E+00   8.255904E+00   1.491083E+01   2.626276E+00   3.020765E+00   9.586510E+00   1.025153E+01   8.149325E+00   4.845582E+01   3.168719E+01   1.535969E+01   5.659300E+01   4.684632E+01   1.981144E+01
   3.554322E-01   3.026839E-01   4.908308E-01   1.325798E+00   2.213708E-01   9.787279E-02   3.381338E-01   6.543542E-02   2.807241E-01   6.702287E-02   1.523943E-01   4.926330E-02   5.073003E-02   6.149213E-02   1.633333E-02   2.249293E-02   2.629310E-02   3.832141E-02   2.612494E-01   4.616011E-01   2.111147E+00   2.911768E+00   1.496171E+01   3.150802E+00   5.215831E+00   1.422607E+01   1.105877E+01   2.797954E+01   1.109803E+02   6.293633E+01   8.102695E+01   8.247539E+01   5.651044E+01   6.625148E+01   3.893857E+01   6.630521E+00   5.218608E+00   6.135182E+00   2.301266E+00   4.519763E+00   2.635853E+00   1.930832E+00   1.396733E+00   2.928568E+00   2.025298E+01   2.668339E+01   1.386274E+01   1.674950E+01   1.265605E+01   1.713409E+01
   3.803084E-01   2.344851E-01   2.848467E-01   5.431801E-01   5.078563E-01   2.335614E-01   6.250817E-02   1.802072E-02   2.521325E-02   3.671105E-02   1.142631E-02   1.812028E-02   4.085425E-02   5.831410E-02   4.310844E-02   8.142036E-02   3.928497E-02   1.677910E-01   3.044018E-01   3.409432E-01   9.533126E-01   1.923262E+00   7.604966E+00   2.671265E+00   6.049338E+00   8.653931E+00   3.185289E+01   3.073518E+01   1.402077E+02   2.553040E+02   2.712988E+02   5.913936E+01   1.662435E+02   3.595284E+01   2.182078E+01   1.509335E+01   1.945632E+01   2.639212E+00   7.272397E+00   1.143023E+00   1.741977E+00   2.117157E+00   1.224474E+00   5.970747E+00   5.635818E+00   1.560187E+01   1.661256E+01   2.190076E+01   2.041820E+01   8.232775E+00
   7.000221E-01   2.917884E-01   3.948614E-01   1.529004E-01   4.894426E-01   3.040454E-01   8.219370E-02   5.304164E-02   6.672530E-03   3.340889E-03   3.017468E-03   1.003438E-02   4.920343E-02   7.058051E-02   2.173218E-01   9.261818E-02   9.462835E-02   1.668075E-01   1.836638E-01   1.915923E-01   2.815938E+00   3.326653E+00   1.077918E+01   7.803967E+00   9.648513E+00   2.132403E+01   5.158158E+01   6.526052E+01   6.995428E+01   2.550370E+02   2.011932E+02   2.443509E+01   2.772157E+01   1.987798E+01   1.683134E+01   5.310045E+01   2.810244E+01   5.770922E+00   4.100207E+00   3.504685E-01   1.083005E+00   5.152782E+00   4.881177E+00   3.020615E+00   7.955877E+00   1.510511E+01   1.229887E+01   2.768643E+01   2.593985E+01   7.407423E+00
   4.923574E-01   1.268098E-01   3.159224E-01   3.198181E-01   4.582702E-01   1.661599E-01   4.650938E-02   8.263118E-02   8.074210E-03   3.046735E-03   1.207096E-03   2.297349E-03   9.705036E-03   4.714912E-02   7.483079E-02   1.409985E-01   2.886231E-01   3.900482E-01   1.369845E-01   1.785149E-01   9.147335E-01   5.570032E+00   7.725650E+00   6.845206E+00   6.070603E+00   3.038954E+01   4.982784E+01   1.510096E+01   1.435118E+01   3.050967E+01   7.091786E+01   7.218806E+01   3.423080E+01   2.012973E+01   7.784763E+00   1.675735E+01   3.753901E+00   8.493167E+00   3.204965E+00   2.251119E+00   5.766171E+00   7.179226E+00   4.997285E+00   3.993370E+00   6.959846E+00   2.977314E+01   3.530590E+01   4.591615E+01   2.072864E+01   5.097300E+00