# File generated by Flopy version 3.3.3 on 11/23/2020 at 13:57:44.
BEGIN options
  auxiliary  CONCENTRATION
END options

BEGIN dimensions
  MAXBOUND  40
END dimensions

BEGIN period  1
    OPEN/CLOSE  'flow.ghb_stress_period_data_1.txt'
END period  1

BEGIN period  3
    OPEN/CLOSE  'flow.ghb_stress_period_data_3.txt'
END period  3

