# File generated by Flopy version 3.3.3 on 11/23/2020 at 13:57:43.
BEGIN options
  TIME_UNITS  seconds
END options

BEGIN dimensions
  NPER 22
END dimensions

BEGIN perioddata
       3.50000000   20        1.00000000
       0.015000000   1        1.00000000
       0.015000000   1        1.00000000
       0.015000000   1        1.00000000
       0.015000000   1        1.00000000
       0.015000000   1        1.00000000
       0.015000000   1        1.00000000
       0.015000000   1        1.00000000
       0.015000000   1        1.00000000
       0.015000000   1        1.00000000
       0.015000000   1        1.00000000
       0.015000000   1        1.00000000
       0.015000000   1        1.00000000
       0.015000000   1        1.00000000
       0.015000000   1        1.00000000
       0.015000000   1        1.00000000
       0.015000000   1        1.00000000
       0.015000000   1        1.00000000
       0.015000000   1        1.00000000
       0.015000000   1        1.00000000
       0.015000000   1        1.00000000
       3.50000000   20        1.00000000
END perioddata

