# File generated by Flopy version 3.3.3 on 11/23/2020 at 13:57:43.
BEGIN options
  SAVE_SPECIFIC_DISCHARGE
END options

BEGIN griddata
  icelltype
    OPEN/CLOSE  'flow.npf_icelltype.txt'  FACTOR  1
  k
    OPEN/CLOSE  'flow.npf_k.txt'  FACTOR  1.0
END griddata

