# File generated by Flopy version 3.3.3 on 11/23/2020 at 13:57:44.
BEGIN options
  auxiliary  CONCENTRATION
END options

BEGIN dimensions
  MAXBOUND  300
END dimensions

BEGIN period  1
    OPEN/CLOSE  'flow.wel_stress_period_data_predev.txt'
END period  1

BEGIN period  2
    OPEN/CLOSE  'flow.wel_stress_period_data_historic.txt'
END period  2

BEGIN period  22
    OPEN/CLOSE  'flow.wel_stress_period_data_scenario.txt'
END period 22

