# File generated by Flopy version 3.3.3 on 11/23/2020 at 13:57:43.
BEGIN griddata
  strt
    OPEN/CLOSE  'flow.ic_strt.txt'  FACTOR  1.0
END griddata

