# File generated by Flopy version 3.3.3 on 11/23/2020 at 13:57:44.
BEGIN options
  XT3D_OFF
END options

BEGIN griddata
  diffc
    #OPEN/CLOSE  'trans.dsp_diffc.txt'  FACTOR  1.0
    constant 0.1
  alh 
    constant 0.025
  ath1
    constant 0.0025 
END griddata

