# File generated by Flopy version 3.3.3 on 11/23/2020 at 13:57:44.
BEGIN options
END options

BEGIN griddata
  porosity
    OPEN/CLOSE  'trans.mst_porosity.txt'  FACTOR  1.0
END griddata

