# File generated by Flopy version 3.3.3 on 11/23/2020 at 13:57:44.
BEGIN options
END options

BEGIN sources
    GHB-1  AUX  CONCENTRATION
  WEL-1  AUX  CONCENTRATION
END sources

