# File generated by Flopy version 3.3.3 on 11/23/2020 at 13:57:44.
BEGIN options
  SCHEME  upstream
END options

