# File generated by Flopy version 3.3.3 on 11/23/2020 at 13:57:44.
BEGIN options
  LENGTH_UNITS  cm
END options

BEGIN dimensions
  NLAY  40
  NROW  1
  NCOL  160
END dimensions

BEGIN griddata
  delr
    OPEN/CLOSE  'trans.dis_delr.txt'  FACTOR  1.0
  delc
    OPEN/CLOSE  'trans.dis_delc.txt'  FACTOR  1.0
  top
    OPEN/CLOSE  'trans.dis_top.txt'  FACTOR  1.0
  botm  LAYERED
    OPEN/CLOSE  'trans.dis_botm_layer1.txt'  FACTOR  1.0
    OPEN/CLOSE  'trans.dis_botm_layer2.txt'  FACTOR  1.0
    OPEN/CLOSE  'trans.dis_botm_layer3.txt'  FACTOR  1.0
    OPEN/CLOSE  'trans.dis_botm_layer4.txt'  FACTOR  1.0
    OPEN/CLOSE  'trans.dis_botm_layer5.txt'  FACTOR  1.0
    OPEN/CLOSE  'trans.dis_botm_layer6.txt'  FACTOR  1.0
    OPEN/CLOSE  'trans.dis_botm_layer7.txt'  FACTOR  1.0
    OPEN/CLOSE  'trans.dis_botm_layer8.txt'  FACTOR  1.0
    OPEN/CLOSE  'trans.dis_botm_layer9.txt'  FACTOR  1.0
    OPEN/CLOSE  'trans.dis_botm_layer10.txt'  FACTOR  1.0
    OPEN/CLOSE  'trans.dis_botm_layer11.txt'  FACTOR  1.0
    OPEN/CLOSE  'trans.dis_botm_layer12.txt'  FACTOR  1.0
    OPEN/CLOSE  'trans.dis_botm_layer13.txt'  FACTOR  1.0
    OPEN/CLOSE  'trans.dis_botm_layer14.txt'  FACTOR  1.0
    OPEN/CLOSE  'trans.dis_botm_layer15.txt'  FACTOR  1.0
    OPEN/CLOSE  'trans.dis_botm_layer16.txt'  FACTOR  1.0
    OPEN/CLOSE  'trans.dis_botm_layer17.txt'  FACTOR  1.0
    OPEN/CLOSE  'trans.dis_botm_layer18.txt'  FACTOR  1.0
    OPEN/CLOSE  'trans.dis_botm_layer19.txt'  FACTOR  1.0
    OPEN/CLOSE  'trans.dis_botm_layer20.txt'  FACTOR  1.0
    OPEN/CLOSE  'trans.dis_botm_layer21.txt'  FACTOR  1.0
    OPEN/CLOSE  'trans.dis_botm_layer22.txt'  FACTOR  1.0
    OPEN/CLOSE  'trans.dis_botm_layer23.txt'  FACTOR  1.0
    OPEN/CLOSE  'trans.dis_botm_layer24.txt'  FACTOR  1.0
    OPEN/CLOSE  'trans.dis_botm_layer25.txt'  FACTOR  1.0
    OPEN/CLOSE  'trans.dis_botm_layer26.txt'  FACTOR  1.0
    OPEN/CLOSE  'trans.dis_botm_layer27.txt'  FACTOR  1.0
    OPEN/CLOSE  'trans.dis_botm_layer28.txt'  FACTOR  1.0
    OPEN/CLOSE  'trans.dis_botm_layer29.txt'  FACTOR  1.0
    OPEN/CLOSE  'trans.dis_botm_layer30.txt'  FACTOR  1.0
    OPEN/CLOSE  'trans.dis_botm_layer31.txt'  FACTOR  1.0
    OPEN/CLOSE  'trans.dis_botm_layer32.txt'  FACTOR  1.0
    OPEN/CLOSE  'trans.dis_botm_layer33.txt'  FACTOR  1.0
    OPEN/CLOSE  'trans.dis_botm_layer34.txt'  FACTOR  1.0
    OPEN/CLOSE  'trans.dis_botm_layer35.txt'  FACTOR  1.0
    OPEN/CLOSE  'trans.dis_botm_layer36.txt'  FACTOR  1.0
    OPEN/CLOSE  'trans.dis_botm_layer37.txt'  FACTOR  1.0
    OPEN/CLOSE  'trans.dis_botm_layer38.txt'  FACTOR  1.0
    OPEN/CLOSE  'trans.dis_botm_layer39.txt'  FACTOR  1.0
    OPEN/CLOSE  'trans.dis_botm_layer40.txt'  FACTOR  1.0
END griddata

