MODPATH_ENDPOINT_FILE 6 0                                                       
 1          1          1          1   0.0000000E+00
         0          0          1          0          0          0
         1
part            
END HEADER
          1     1  2   0.0000000E+00   0.9077018E+03  1    1   15    3 6          1   0.5000000E+00   0.5000000E+00   0.1000000E+01   0.6250000E+03   0.6375000E+04   0.3892733E+02  1    3   27   11 1          1   0.0000000E+00   0.4286661E+00   0.1245910E+00   0.2500000E+04   0.3357167E+04   0.4004687E+01 part_0000
