pcf
* control data
             restart          estimation
         1         2         1         0         1
         1         1              single               point
   2.000000E+01  -3.000000E+00   3.000000E-01   1.000000E-02        -7
   1.000000E+01   1.000000E+01   1.000000E-03
   1.000000E-01
         0   1.000000E-02         3         3   1.000000E-02         3
         0         0         0
* singular value decomposition
         1
  10000000    1.000000E-06
1
* parameter groups
 pargp                   relative              1.0000000000E-02       0.0  switch                2.0000000000E+00       parabolic             1.0000000000E-05      5.0000000000E-01       smaller              
* parameter data
 p1                     log                    factor                1.0000000000E+00      1.1000000000E-10      1.1000000000E+10       pargp                 1.0000000000E+00      0.0000000000E+00      1          
* observation groups
obgnme               
* observation data
 part_status           2.0000000000E+00      1.0000000000E+00       obgnme               
 part_time             9.0770180000E+02      1.0000000000E+00       obgnme               
* model command line
python forward_run.py
* model input/output
par.dat.tpl par.dat
freyberg.mpenpt.ins freyberg.mpenpt
++additional_ins_delimiters(|)
