BEGIN options
  DIGITS  10
  PRINT_INPUT
END options

BEGIN continuous  FILEOUT  heads.csv
  trgw_2_2_15  head  3 3 16
  trgw_2_2_9  head  3 3 10
  trgw_2_3_8  head  3 4 9
  trgw_2_9_1  head  3 10 2
  trgw_2_13_10  head  3 14 11
  trgw_2_15_16  head  3 16 17
  trgw_2_21_10  head  3 22 11
  trgw_2_22_15  head  3 23 16
  trgw_2_24_4  head  3 25 5
  trgw_2_26_6  head  3 27 7
  trgw_2_29_15  head  3 30 16
  trgw_2_33_7  head  3 34 8
  trgw_2_34_10  head  3 35 11
  trgw_0_2_15  head  1 3 16
  trgw_0_2_9  head  1 3 10
  trgw_0_3_8  head  1 4 9
  trgw_0_9_1  head  1 10 2
  trgw_0_13_10  head  1 14 11
  trgw_0_15_16  head  1 16 17
  trgw_0_21_10  head  1 22 11
  trgw_0_22_15  head  1 23 16
  trgw_0_24_4  head  1 25 5
  trgw_0_26_6  head  1 27 7
  trgw_0_29_15  head  1 30 16
  trgw_0_33_7  head  1 34 8
  trgw_0_34_10  head  1 35 11
END continuous  FILEOUT  heads.csv

