BEGIN options
END options

BEGIN continuous  FILEOUT  sfr.csv
  headwater  sfr  headwater
  tailwater  sfr  tailwater
  gage_1  inflow  40
END continuous  FILEOUT  sfr.csv

