BEGIN Options
  PRINT_INPUT
  PRINT_FLOWS
  SAVE_FLOWS
END Options

BEGIN Dimensions
  MAXBOUND  6
END Dimensions

BEGIN PERIOD  1
3 10 17 -1.750000000000000e+02
3 12 14 -1.7500000000000000e+02
3 21 15 -1.7500000000000000e+02
3 27 11 -1.7500000000000000e+02
3 30 7 -1.750000000000000e+02
3 35 13 -1.7500000000000000e+02
END PERIOD  1

BEGIN PERIOD  2
3 10 17 -62.721499999999998920
3 12 14 -62.7214999999999989200
3 21 15 -62.7214999999999989200
3 27 11 -62.7214999999999989200
3 30 7 -62.721499999999998920
3 35 13 -62.7214999999999989200
END PERIOD  2

BEGIN PERIOD  3
3 10 17 -69.591230000000024347
3 12 14 -69.5912300000000243472
3 21 15 -69.5912300000000243472
3 27 11 -69.5912300000000243472
3 30 7 -69.591230000000024347
3 35 13 -69.5912300000000243472
END PERIOD  3

BEGIN PERIOD  4
3 10 17 -1.071519100000001e+02
3 12 14 -1.0715191000000006e+02
3 21 15 -1.0715191000000006e+02
3 27 11 -1.0715191000000006e+02
3 30 7 -1.071519100000001e+02
3 35 13 -1.0715191000000006e+02
END PERIOD  4

BEGIN PERIOD  5
3 10 17 -1.644673200000001e+02
3 12 14 -1.6446732000000006e+02
3 21 15 -1.6446732000000006e+02
3 27 11 -1.6446732000000006e+02
3 30 7 -1.644673200000001e+02
3 35 13 -1.6446732000000006e+02
END PERIOD  5

BEGIN PERIOD  6
3 10 17 -2.248494099999999e+02
3 12 14 -2.2484940999999995e+02
3 21 15 -2.2484940999999995e+02
3 27 11 -2.2484940999999995e+02
3 30 7 -2.248494099999999e+02
3 35 13 -2.2484940999999995e+02
END PERIOD  6

BEGIN PERIOD  7
3 10 17 -2.707173500000000e+02
3 12 14 -2.7071735000000001e+02
3 21 15 -2.7071735000000001e+02
3 27 11 -2.7071735000000001e+02
3 30 7 -2.707173500000000e+02
3 35 13 -2.7071735000000001e+02
END PERIOD  7

BEGIN PERIOD  8
3 10 17 -2.916032000000001e+02
3 12 14 -2.9160320000000013e+02
3 21 15 -2.9160320000000013e+02
3 27 11 -2.9160320000000013e+02
3 30 7 -2.916032000000001e+02
3 35 13 -2.9160320000000013e+02
END PERIOD  8

BEGIN PERIOD  9
3 10 17 -2.887160600000001e+02
3 12 14 -2.8871606000000014e+02
3 21 15 -2.8871606000000014e+02
3 27 11 -2.8871606000000014e+02
3 30 7 -2.887160600000001e+02
3 35 13 -2.8871606000000014e+02
END PERIOD  9

BEGIN PERIOD  10
3 10 17 -2.736050700000001e+02
3 12 14 -2.7360507000000013e+02
3 21 15 -2.7360507000000013e+02
3 27 11 -2.7360507000000013e+02
3 30 7 -2.736050700000001e+02
3 35 13 -2.7360507000000013e+02
END PERIOD  10

BEGIN PERIOD  11
3 10 17 -2.2978412999999998e+02
3 12 14 -2.29784129999999976e+02
3 21 15 -2.29784129999999976e+02
3 27 11 -2.29784129999999976e+02
3 30 7 -2.2978412999999998e+02
3 35 13 -2.29784129999999976e+02
END PERIOD  11

BEGIN PERIOD  12
3 10 17 -1.7001217999999992e+02
3 12 14 -1.70012179999999915e+02
3 21 15 -1.70012179999999915e+02
3 27 11 -1.70012179999999915e+02
3 30 7 -1.7001217999999992e+02
3 35 13 -1.70012179999999915e+02
END PERIOD  12

BEGIN PERIOD  13
3 10 17 -1.1169247000000004e+02
3 12 14 -1.11692470000000043e+02
3 21 15 -1.11692470000000043e+02
3 27 11 -1.11692470000000043e+02
3 30 7 -1.1169247000000004e+02
3 35 13 -1.11692470000000043e+02
END PERIOD  13

BEGIN PERIOD  14
3 10 17 -71.8054699999999854754
3 12 14 -71.80546999999998547537
3 21 15 -71.80546999999998547537
3 27 11 -71.80546999999998547537
3 30 7 -71.8054699999999854754
3 35 13 -71.80546999999998547537
END PERIOD  14

BEGIN PERIOD  15
3 10 17 -61.9647139999999865267
3 12 14 -61.96471399999998652675
3 21 15 -61.96471399999998652675
3 27 11 -61.96471399999998652675
3 30 7 -61.9647139999999865267
3 35 13 -61.96471399999998652675
END PERIOD  15

BEGIN PERIOD  16
3 10 17 -85.0354400000000083537
3 12 14 -85.03544000000000835371
3 21 15 -85.03544000000000835371
3 27 11 -85.03544000000000835371
3 30 7 -85.0354400000000083537
3 35 13 -85.03544000000000835371
END PERIOD  16

BEGIN PERIOD  17
3 10 17 -1.3430035000000007e+02
3 12 14 -1.34300350000000066e+02
3 21 15 -1.34300350000000066e+02
3 27 11 -1.34300350000000066e+02
3 30 7 -1.3430035000000007e+02
3 35 13 -1.34300350000000066e+02
END PERIOD  17

BEGIN PERIOD  18
3 10 17 -1.9541543999999990e+02
3 12 14 -1.95415439999999904e+02
3 21 15 -1.95415439999999904e+02
3 27 11 -1.95415439999999904e+02
3 30 7 -1.9541543999999990e+02
3 35 13 -1.95415439999999904e+02
END PERIOD  18

BEGIN PERIOD  19
3 10 17 -2.5058632000000014e+02
3 12 14 -2.50586320000000143e+02
3 21 15 -2.50586320000000143e+02
3 27 11 -2.50586320000000143e+02
3 30 7 -2.5058632000000014e+02
3 35 13 -2.50586320000000143e+02
END PERIOD  19

BEGIN PERIOD  20
3 10 17 -2.8374940000000004e+02
3 12 14 -2.83749400000000037e+02
3 21 15 -2.83749400000000037e+02
3 27 11 -2.83749400000000037e+02
3 30 7 -2.8374940000000004e+02
3 35 13 -2.83749400000000037e+02
END PERIOD  20

BEGIN PERIOD  21
3 10 17 -2.8524889999999994e+02
3 12 14 -2.85248899999999935e+02
3 21 15 -2.85248899999999935e+02
3 27 11 -2.85248899999999935e+02
3 30 7 -2.8524889999999994e+02
3 35 13 -2.85248899999999935e+02
END PERIOD  21

BEGIN PERIOD  22
3 10 17 -2.5464815999999996e+02
3 12 14 -2.54648159999999962e+02
3 21 15 -2.54648159999999962e+02
3 27 11 -2.54648159999999962e+02
3 30 7 -2.5464815999999996e+02
3 35 13 -2.54648159999999962e+02
END PERIOD  22

BEGIN PERIOD  23
3 10 17 -2.0085701000000000e+02
3 12 14 -2.00857010000000002e+02
3 21 15 -2.00857010000000002e+02
3 27 11 -2.00857010000000002e+02
3 30 7 -2.0085701000000000e+02
3 35 13 -2.00857010000000002e+02
END PERIOD  23

BEGIN PERIOD  24
3 10 17 -1.3953727999999995e+02
3 12 14 -1.39537279999999953e+02
3 21 15 -1.39537279999999953e+02
3 27 11 -1.39537279999999953e+02
3 30 7 -1.3953727999999995e+02
3 35 13 -1.39537279999999953e+02
END PERIOD  24

BEGIN PERIOD  25
3 10 17 -88.5429149999999935972
3 12 14 -88.54291499999999359716
3 21 15 -88.54291499999999359716
3 27 11 -88.54291499999999359716
3 30 7 -88.5429149999999935972
3 35 13 -88.54291499999999359716
END PERIOD  25

