BEGIN Options
  PRINT_INPUT
  PRINT_FLOWS
  SAVE_FLOWS
END Options

BEGIN Dimensions
  MAXBOUND  6
END Dimensions

BEGIN PERIOD  1
3 10 17 -1.575000000000000e+02
3 12 14 -1.5750000000000000e+02
3 21 15 -1.5750000000000000e+02
3 27 11 -1.5750000000000000e+02
3 30 7 -1.575000000000000e+02
3 35 13 -1.5750000000000000e+02
END PERIOD  1

BEGIN PERIOD  2
3 10 17 -0.000000000000000e+00
3 12 14 -0.0000000000000000e+00
3 21 15 -0.0000000000000000e+00
3 27 11 -0.0000000000000000e+00
3 30 7 -0.000000000000000e+00
3 35 13 -0.0000000000000000e+00
END PERIOD  2

BEGIN PERIOD  3
3 10 17 -0.000000000000000e+00
3 12 14 -0.0000000000000000e+00
3 21 15 -0.0000000000000000e+00
3 27 11 -0.0000000000000000e+00
3 30 7 -0.000000000000000e+00
3 35 13 -0.0000000000000000e+00
END PERIOD  3

BEGIN PERIOD  4
3 10 17 -0.000000000000000e+00
3 12 14 -0.0000000000000000e+00
3 21 15 -0.0000000000000000e+00
3 27 11 -0.0000000000000000e+00
3 30 7 -0.000000000000000e+00
3 35 13 -0.0000000000000000e+00
END PERIOD  4

BEGIN PERIOD  5
3 10 17 -0.000000000000000e+00
3 12 14 -0.0000000000000000e+00
3 21 15 -0.0000000000000000e+00
3 27 11 -0.0000000000000000e+00
3 30 7 -0.000000000000000e+00
3 35 13 -0.0000000000000000e+00
END PERIOD  5

BEGIN PERIOD  6
3 10 17 -0.000000000000000e+00
3 12 14 -0.0000000000000000e+00
3 21 15 -0.0000000000000000e+00
3 27 11 -0.0000000000000000e+00
3 30 7 -0.000000000000000e+00
3 35 13 -0.0000000000000000e+00
END PERIOD  6

BEGIN PERIOD  7
3 10 17 -0.000000000000000e+00
3 12 14 -0.0000000000000000e+00
3 21 15 -0.0000000000000000e+00
3 27 11 -0.0000000000000000e+00
3 30 7 -0.000000000000000e+00
3 35 13 -0.0000000000000000e+00
END PERIOD  7

BEGIN PERIOD  8
3 10 17 -0.000000000000000e+00
3 12 14 -0.0000000000000000e+00
3 21 15 -0.0000000000000000e+00
3 27 11 -0.0000000000000000e+00
3 30 7 -0.000000000000000e+00
3 35 13 -0.0000000000000000e+00
END PERIOD  8

BEGIN PERIOD  9
3 10 17 -0.000000000000000e+00
3 12 14 -0.0000000000000000e+00
3 21 15 -0.0000000000000000e+00
3 27 11 -0.0000000000000000e+00
3 30 7 -0.000000000000000e+00
3 35 13 -0.0000000000000000e+00
END PERIOD  9

BEGIN PERIOD  10
3 10 17 -0.000000000000000e+00
3 12 14 -0.0000000000000000e+00
3 21 15 -0.0000000000000000e+00
3 27 11 -0.0000000000000000e+00
3 30 7 -0.000000000000000e+00
3 35 13 -0.0000000000000000e+00
END PERIOD  10

BEGIN PERIOD  11
3 10 17 -0.0000000000000000e+00
3 12 14 -0.00000000000000000e+00
3 21 15 -0.00000000000000000e+00
3 27 11 -0.00000000000000000e+00
3 30 7 -0.0000000000000000e+00
3 35 13 -0.00000000000000000e+00
END PERIOD  11

BEGIN PERIOD  12
3 10 17 -0.0000000000000000e+00
3 12 14 -0.00000000000000000e+00
3 21 15 -0.00000000000000000e+00
3 27 11 -0.00000000000000000e+00
3 30 7 -0.0000000000000000e+00
3 35 13 -0.00000000000000000e+00
END PERIOD  12

BEGIN PERIOD  13
3 10 17 -0.0000000000000000e+00
3 12 14 -0.00000000000000000e+00
3 21 15 -0.00000000000000000e+00
3 27 11 -0.00000000000000000e+00
3 30 7 -0.0000000000000000e+00
3 35 13 -0.00000000000000000e+00
END PERIOD  13

BEGIN PERIOD  14
3 10 17 -0.0000000000000000e+00
3 12 14 -0.00000000000000000e+00
3 21 15 -0.00000000000000000e+00
3 27 11 -0.00000000000000000e+00
3 30 7 -0.0000000000000000e+00
3 35 13 -0.00000000000000000e+00
END PERIOD  14

BEGIN PERIOD  15
3 10 17 -0.0000000000000000e+00
3 12 14 -0.00000000000000000e+00
3 21 15 -0.00000000000000000e+00
3 27 11 -0.00000000000000000e+00
3 30 7 -0.0000000000000000e+00
3 35 13 -0.00000000000000000e+00
END PERIOD  15

BEGIN PERIOD  16
3 10 17 -0.0000000000000000e+00
3 12 14 -0.00000000000000000e+00
3 21 15 -0.00000000000000000e+00
3 27 11 -0.00000000000000000e+00
3 30 7 -0.0000000000000000e+00
3 35 13 -0.00000000000000000e+00
END PERIOD  16

BEGIN PERIOD  17
3 10 17 -0.0000000000000000e+00
3 12 14 -0.00000000000000000e+00
3 21 15 -0.00000000000000000e+00
3 27 11 -0.00000000000000000e+00
3 30 7 -0.0000000000000000e+00
3 35 13 -0.00000000000000000e+00
END PERIOD  17

BEGIN PERIOD  18
3 10 17 -0.0000000000000000e+00
3 12 14 -0.00000000000000000e+00
3 21 15 -0.00000000000000000e+00
3 27 11 -0.00000000000000000e+00
3 30 7 -0.0000000000000000e+00
3 35 13 -0.00000000000000000e+00
END PERIOD  18

BEGIN PERIOD  19
3 10 17 -0.0000000000000000e+00
3 12 14 -0.00000000000000000e+00
3 21 15 -0.00000000000000000e+00
3 27 11 -0.00000000000000000e+00
3 30 7 -0.0000000000000000e+00
3 35 13 -0.00000000000000000e+00
END PERIOD  19

BEGIN PERIOD  20
3 10 17 -0.0000000000000000e+00
3 12 14 -0.00000000000000000e+00
3 21 15 -0.00000000000000000e+00
3 27 11 -0.00000000000000000e+00
3 30 7 -0.0000000000000000e+00
3 35 13 -0.00000000000000000e+00
END PERIOD  20

BEGIN PERIOD  21
3 10 17 -0.0000000000000000e+00
3 12 14 -0.00000000000000000e+00
3 21 15 -0.00000000000000000e+00
3 27 11 -0.00000000000000000e+00
3 30 7 -0.0000000000000000e+00
3 35 13 -0.00000000000000000e+00
END PERIOD  21

BEGIN PERIOD  22
3 10 17 -0.0000000000000000e+00
3 12 14 -0.00000000000000000e+00
3 21 15 -0.00000000000000000e+00
3 27 11 -0.00000000000000000e+00
3 30 7 -0.0000000000000000e+00
3 35 13 -0.00000000000000000e+00
END PERIOD  22

BEGIN PERIOD  23
3 10 17 -0.0000000000000000e+00
3 12 14 -0.00000000000000000e+00
3 21 15 -0.00000000000000000e+00
3 27 11 -0.00000000000000000e+00
3 30 7 -0.0000000000000000e+00
3 35 13 -0.00000000000000000e+00
END PERIOD  23

BEGIN PERIOD  24
3 10 17 -0.0000000000000000e+00
3 12 14 -0.00000000000000000e+00
3 21 15 -0.00000000000000000e+00
3 27 11 -0.00000000000000000e+00
3 30 7 -0.0000000000000000e+00
3 35 13 -0.00000000000000000e+00
END PERIOD  24

BEGIN PERIOD  25
3 10 17 -0.0000000000000000e+00
3 12 14 -0.00000000000000000e+00
3 21 15 -0.00000000000000000e+00
3 27 11 -0.00000000000000000e+00
3 30 7 -0.0000000000000000e+00
3 35 13 -0.00000000000000000e+00
END PERIOD  25

